68
ABEDAO Co oxo CH4, charge 0 mult 4 bond 3 64
Co        -0.00000        0.00000       -1.62073
P         -2.73456       -1.55959       -2.82009
O         -1.60332       -1.22893       -1.82924
O          0.00000        0.00000        0.00000
O          1.28397       -1.53634       -2.01879
O          0.38884       -0.31308       -3.56389
O          1.73986       -1.97994       -4.14863
O         -0.87296        1.75992       -1.92339
O          1.31010        1.70513       -1.85775
O          0.27463        3.63281       -2.24941
N          1.18228       -1.32190       -3.29305
N          0.26527        2.43780       -2.01917
C         -2.07158       -2.47464       -4.27054
H         -1.27318       -1.79431       -4.61495
C         -1.39440       -3.80941       -3.87060
H         -0.71506       -3.65279       -3.02199
H         -2.16682       -4.52409       -3.54431
C         -0.63789       -4.40071       -5.07453
H          0.18844       -3.72593       -5.34387
H         -0.18536       -5.36125       -4.78966
C         -1.57067       -4.58620       -6.28486
H         -2.33560       -5.34327       -6.04303
H         -1.00415       -4.97127       -7.14467
C         -2.27051       -3.26766       -6.66054
H         -1.51830       -2.53470       -6.99434
H         -2.96091       -3.42562       -7.50170
C         -3.04053       -2.68385       -5.45992
H         -3.84213       -3.37950       -5.17518
H         -3.52288       -1.73869       -5.74517
C         -3.98317       -2.52372       -1.87010
H         -4.47168       -1.74645       -1.25585
C         -5.08428       -3.21608       -2.70592
H         -5.54517       -2.51440       -3.41667
H         -4.63617       -4.02965       -3.29637
C         -6.15618       -3.81024       -1.77131
H         -6.64872       -2.98987       -1.22431
H         -6.93261       -4.31039       -2.36793
C         -5.53024       -4.79474       -0.76691
H         -5.11943       -5.65705       -1.31798
H         -6.30253       -5.18803       -0.09060
C         -4.40159       -4.12723        0.04000
H         -3.93583       -4.85540        0.71934
H         -4.82461       -3.32859        0.67132
C         -3.32778       -3.52233       -0.88316
H         -2.55051       -3.01205       -0.30180
H         -2.83744       -4.32982       -1.44715
C         -3.58786       -0.06280       -3.46779
H         -4.47979       -0.41348       -4.01800
C         -2.67573        0.71795       -4.45035
H         -1.74074        0.97795       -3.93992
H         -2.41218        0.08970       -5.31185
C         -3.35369        2.01147       -4.93617
H         -2.66760        2.54808       -5.60690
H         -4.24856        1.75637       -5.52919
C         -3.75909        2.90375       -3.75173
H         -4.24816        3.81931       -4.11429
H         -2.85637        3.20951       -3.20211
C         -4.69964        2.13998       -2.80559
H         -5.63472        1.89552       -3.33746
H         -4.97492        2.76687       -1.94548
C         -4.05081        0.84053       -2.29351
H         -4.76696        0.30001       -1.65780
H         -3.18184        1.08582       -1.66902
C          2.36844        0.59052        0.86295
H          1.37222        0.34213        0.49997
H          2.43842        0.35198        1.92319
H          3.10986        0.01421        0.31151
H          2.55328        1.65376        0.71712
