34
ACINUX Co oxo CH4, charge 2 mult 3 bond 16 30
Co         0.00000       -0.00000       -1.68571
N         -0.12262       -0.01985       -3.59517
N          0.77493        0.25542       -4.39564
N          1.56685        0.48921       -5.21132
N          1.97625       -0.30012       -1.65162
H          2.21126       -1.07057       -1.01272
H          2.33424       -0.56393       -2.57996
C          2.63482        0.97132       -1.17007
H          3.71061        0.93998       -1.38006
H          2.47949        1.02275       -0.08681
C          1.94667        2.12109       -1.89033
H          2.27330        3.09552       -1.50760
H          2.12968        2.09190       -2.96975
N          0.46535        1.94925       -1.66527
H         -0.06994        2.49933       -2.34925
H          0.20769        2.28212       -0.72509
O          0.00000        0.00000        0.00000
N         -1.97137        0.31996       -1.72941
H         -2.20557        1.03648       -2.42845
H         -2.26333        0.66308       -0.80399
C         -2.66646       -0.97504       -2.06460
H         -3.72463       -0.91376       -1.78316
H         -2.58774       -1.11218       -3.14810
C         -1.93206       -2.06797       -1.30495
H         -2.30013       -3.06876       -1.56180
H         -1.99894       -1.92789       -0.22039
N         -0.47945       -1.94037       -1.68469
H          0.10350       -2.48709       -1.03798
H         -0.32104       -2.29059       -2.63977
C         -1.50280        1.92350        0.86295
H         -0.87068        1.11442        0.49997
H         -1.20567        2.85732        0.38798
H         -2.54258        1.70812        0.62132
H         -1.39227        2.01411        1.94252
