52
ACOZIE Co oxo CH4, charge 2 mult 3 bond 46 48
Co        -0.00000        0.00000       -1.65061
N         -1.25814        1.58556       -1.65827
H         -1.21694        1.98598       -0.71006
H         -0.99499        2.33961       -2.30564
C         -2.66484        1.10116       -1.93816
H         -2.72244        0.94537       -3.02635
N         -1.66085       -1.09466       -1.68751
H         -1.82140       -1.48853       -2.62459
H         -1.49119       -1.89759       -1.06411
C         -2.81458       -0.24634       -1.22804
H         -2.66587       -0.10818       -0.14765
C         -4.18910       -0.87909       -1.49756
H         -4.27900       -1.82754       -0.95330
H         -4.29039       -1.09515       -2.57308
C         -5.29025        0.11562       -1.05366
H         -6.26688       -0.32471       -1.28963
H         -5.25041        0.24080        0.03815
C         -5.14103        1.47726       -1.74944
H         -5.90006        2.17770       -1.37967
H         -5.30481        1.37100       -2.83214
C         -3.74566        2.10115       -1.49708
H         -3.63778        3.04564       -2.04626
H         -3.61984        2.31657       -0.42450
N          0.12074        0.14538       -3.69004
H          0.43828       -0.78484       -4.00433
H         -0.75396        0.34070       -4.19439
C          1.16834        1.17376       -4.06106
H          0.71313        2.15902       -3.87040
N          1.74180        0.98526       -1.70667
H          1.63408        1.95029       -1.36447
H          2.35206        0.49427       -1.03757
C          2.33053        0.96050       -3.09281
H          2.73025       -0.05312       -3.22248
C          3.44015        2.00587       -3.29729
H          4.27218        1.81079       -2.60909
H          3.04548        3.01096       -3.07748
C          3.91694        1.93839       -4.76903
H          4.67550        2.71627       -4.92063
H          4.40862        0.97152       -4.94949
C          2.75309        2.13274       -5.75451
H          3.11057        2.03477       -6.78663
H          2.33929        3.14745       -5.65446
C          1.62903        1.09325       -5.52290
H          0.78411        1.27751       -6.19989
H          2.00814        0.07959       -5.72553
Cl         1.17004       -1.92543       -1.84421
O          0.00000        0.00000        0.00000
C          1.43475       -1.97477        0.86295
H          0.83126       -1.14413        0.49997
H          2.18968       -1.60068        1.55292
H          0.79529       -2.69036        1.37766
H          1.92279       -2.46391        0.02124
