71
ADAREF Fe oxo CH4, charge 1 mult 3 bond 63 67
C          8.83707        3.60139       -1.22172
H          9.73075        2.96998       -1.14553
H          8.81519        4.27726       -0.35840
H          8.94689        4.22017       -2.12492
C          5.23632        1.23972       -1.48460
C          6.42081        0.74828       -2.04693
H          6.43476       -0.20137       -2.57837
C          7.58367        1.51439       -1.94154
H          8.50730        1.13642       -2.37673
C          7.57860        2.76744       -1.30003
C          6.36590        3.23366       -0.75727
H          6.34162        4.19621       -0.24879
C          5.19254        2.48156       -0.83887
H          4.26152        2.83568       -0.40443
C          3.91397       -0.90514       -1.55800
H          4.76199       -1.56818       -1.47042
C          2.54902       -1.12405       -1.64039
C          1.63637       -2.23722       -1.72405
H          1.98311       -3.27032       -1.78994
C         -0.63120       -2.95237       -2.06269
H         -0.74920       -2.96647       -3.15702
H         -0.24539       -3.93227       -1.74501
C         -2.00389       -2.69106       -1.40710
C         -2.90197       -3.89665       -1.77067
H         -2.48067       -4.82492       -1.36335
H         -3.00694       -4.01455       -2.85856
H         -3.90432       -3.76887       -1.34193
C         -1.88660       -2.56111        0.12271
H         -1.25812       -1.70795        0.40873
H         -1.45150       -3.47606        0.54820
H         -2.88219       -2.42692        0.56736
C         -2.65936       -1.44679       -2.03913
H         -3.69287       -1.34944       -1.67675
H         -2.69380       -1.56195       -3.13451
C         -2.60405        0.93687       -1.85349
H         -3.68532        0.97313       -1.98602
C         -1.79207        2.12638       -1.79426
C         -1.95245        3.50018       -1.85188
H         -2.81942        4.13413       -1.96371
C         -0.25285        5.35965       -1.84343
C         -1.06347        6.35225       -1.28028
H         -1.99224        6.09406       -0.77526
C         -0.63945        7.68188       -1.34160
H         -1.26343        8.45683       -0.89958
C          0.58327        8.03270       -1.94334
C          1.38007        7.00440       -2.48308
H          2.33119        7.25338       -2.95127
C          0.97305        5.66989       -2.44545
H          1.58259        4.87941       -2.87492
C          1.02058        9.47744       -2.02678
H          2.11232        9.56807       -1.96974
H          0.57977       10.07579       -1.22043
H          0.70244        9.92239       -2.98144
C         -0.92109        0.39225       -4.37854
N          4.04107        0.45416       -1.55937
N          2.82888        1.07415       -1.63480
N          1.95241        0.11255       -1.68101
N          0.37874       -1.92795       -1.77626
N         -1.95176       -0.18559       -1.78224
N         -0.44092        1.89067       -1.72723
N          0.24651        2.99907       -1.72275
N         -0.68108        3.99363       -1.80449
N         -0.03259       -0.02272       -3.67794
O          0.00000        0.00000        0.00000
S         -2.17158        0.94961       -5.24278
Fe         0.00000        0.00000       -1.65544
C          0.75430        2.32148        0.86295
H          0.43702        1.34501        0.49997
H          1.75605        2.24465        1.28307
H          0.76047        3.03130        0.03709
H          0.06364        2.66497        1.63166
