32
ADETCO Co oxo CH4, charge 2 mult 3 bond 6 28
Co         0.00000       -0.00000       -1.65844
Cl        -0.03487        0.09402       -3.91534
N         -0.69636        1.89226       -1.70882
N          0.68589       -1.86322       -1.70403
N         -1.81395       -0.84462       -1.76463
N          1.92766        0.53306       -1.76323
O          0.00000        0.00000        0.00000
C         -1.67251       -2.34713       -1.62758
C         -0.36748       -2.74801       -2.30834
C          2.06308       -1.85345       -2.30543
C          2.79473       -0.70140       -1.62331
H         -1.58400        1.94735       -2.22498
H         -0.84625        2.27106       -0.76326
H         -0.04726        2.51433       -2.20773
H          1.96150       -1.70540       -3.38474
H          2.55390       -2.81654       -2.11121
H          0.76886       -2.09118       -0.70170
H         -2.18777       -0.60057       -2.69350
H         -2.45607       -0.47741       -1.04917
H          2.92696       -0.88513       -0.55132
H          3.77649       -0.51228       -2.07343
H         -0.11685       -3.79985       -2.11594
H         -0.38378       -2.56691       -3.38721
H          2.17660        1.22977       -1.04792
H          2.05515        0.96015       -2.69248
H         -2.54158       -2.83937       -2.07997
H         -1.65573       -2.57476       -0.55599
C          0.33971        2.41720        0.86295
H          0.19682        1.40046        0.49997
H          1.38755        2.56744        1.11866
H          0.05063        3.12385        0.08642
H         -0.27614        2.57703        1.74674
