56
AFEWOA Mn oxo CH4, charge 2 mult 1 bond 9 52
Mn         0.00000       -0.00000       -1.58996
N          1.97088       -0.11684       -1.76816
N          0.17754       -0.04613       -3.53665
N         -0.35715       -1.98173       -1.69444
N         -1.97146        0.12735       -1.98055
N         -0.09996        2.01317       -1.72996
C         -1.67251        3.83112       -1.79898
H         -2.70206        4.17546       -1.73435
O         -1.04092       -0.03176       -5.53458
O          0.00000        0.00000        0.00000
C          1.44337       -0.14240       -4.07677
C          2.44046       -0.17825       -3.05385
C         -1.37746        2.47705       -1.64639
C         -1.68377       -2.27723       -1.61394
C         -0.98528        0.00733       -4.31470
C         -2.25012        0.13795       -3.46436
H         -2.74902        1.07600       -3.73315
H         -2.92880       -0.68420       -3.71724
C          2.84543       -0.14030       -0.74110
H          2.41598       -0.09003        0.25551
C          4.72885       -0.29004       -2.25965
H          5.80006       -0.35692       -2.44073
C          3.82633       -0.26737       -3.35448
C          0.68883        4.24587       -2.10174
H          1.52944        4.91294       -2.27301
C          4.19937       -0.32403       -4.73051
H          5.25292       -0.39182       -4.99382
C         -2.40035        1.41658       -1.32231
H         -2.40950        1.23599       -0.23917
H         -3.41155        1.69561       -1.64398
C          0.91331        2.87617       -1.95485
H          1.90894        2.44809       -2.01005
C         -2.14696       -3.58553       -1.74713
H         -3.21222       -3.79575       -1.68654
C          1.84788       -0.20264       -5.42370
H          1.10690       -0.17960       -6.21519
C         -1.21730       -4.61540       -1.94803
H         -1.55440       -5.64428       -2.05060
C          4.23282       -0.22628       -0.96121
H          4.89939       -0.24286       -0.10289
C          0.54072       -2.96984       -1.89159
H          1.58353       -2.67331       -1.94322
C          3.22366       -0.29197       -5.72530
H          3.52483       -0.33674       -6.76930
C          0.14516       -4.30255       -2.01655
H          0.89555       -5.07416       -2.16642
C         -2.56319       -1.09012       -1.31002
H         -3.60069       -1.24012       -1.63383
H         -2.55329       -0.89697       -0.22922
C         -0.62205        4.73101       -2.02628
H         -0.82686        5.79251       -2.14489
C          0.83485        2.29374        0.86295
H          0.48369        1.32894        0.49997
H          1.81849        2.17538        1.31502
H          0.89964        2.99302        0.03064
H          0.13759        2.67764        1.60616
