52
AGAXIS Co oxo CH4, charge 2 mult 2 bond 45 48
C         -0.46629       -2.60720       -0.59604
H         -0.15458       -2.22974        0.36643
C         -1.17176       -3.97078       -2.21194
H         -1.50679       -4.89387       -2.66399
C         -0.99386       -2.70923       -2.72638
H         -1.15383       -2.35493       -3.73323
C          2.39499       -1.74884       -2.24963
H          1.81432       -2.39929       -2.88776
C          3.69836       -1.86389       -1.83289
H          4.46073       -2.60207       -2.03863
C          2.79764       -0.03093       -0.94355
H          2.68277        0.86559       -0.35417
C          1.08256       -0.02022       -4.58910
H          2.11294       -0.02008       -4.26530
C         -0.68200       -0.03202       -5.94341
H         -1.22464       -0.04207       -6.87836
C         -1.10078       -0.01765       -4.63497
H         -2.10828       -0.01299       -4.24583
C          0.47166        2.60048       -0.58314
H          0.18398        2.20701        0.38045
C          0.94628        2.73537       -2.72242
H          1.07735        2.40023       -3.73936
C          1.11560        3.99426       -2.19851
H          1.42154        4.92862       -2.64804
C         -2.78372        0.04301       -0.92472
H         -2.65707       -0.83462       -0.30987
C         -2.40183        1.72483       -2.28395
H         -1.83391        2.35681       -2.95092
C         -3.70301        1.84251       -1.86176
H         -4.47286        2.56715       -2.08648
N         -0.55820       -1.87103       -1.70939
N         -0.83368       -3.88104       -0.87385
H         -0.85621       -4.64366       -0.20175
N          1.85130       -0.59703       -1.69696
N          3.92794       -0.77365       -1.01240
H          4.79852       -0.56498       -0.53026
N          0.00670       -0.01037       -3.79460
N          0.69876       -0.03151       -5.89051
H          1.32535       -0.04175       -6.69146
N          0.55017        1.87745       -1.70621
N          0.81159        3.88335       -0.85425
H          0.83554        4.63881       -0.17407
N         -1.84742        0.59372       -1.70169
N         -3.91938        0.77532       -1.00759
H         -4.78581        0.57335       -0.51540
O          0.00000        0.00000        0.00000
Co         0.00000        0.00000       -1.75792
C          2.11393       -1.22048        0.86295
H          1.22475       -0.70711        0.49997
H          2.41033       -0.79883        1.82226
H          1.89696       -2.28076        0.98394
H          2.92366       -1.09520        0.14562
