66
AGIZEX Fe oxo CH4, charge 1 mult 3 bond 33 62
Fe         0.00000       -0.00000       -1.64427
S          0.38418       -3.87097       -3.66639
N          1.72196        0.83569       -1.70060
N          0.83741       -1.71534       -1.89606
N          2.59719        1.06699       -0.71270
C          3.82059        1.44660       -1.20441
C          1.98416        0.91098       -5.36907
N          0.32238        0.26574       -3.73859
C          2.36163        1.06035       -2.86621
C          1.55834        0.76316       -4.04497
C          4.95171        1.76092       -0.33349
C          3.68590        1.46120       -2.60061
C          1.12333        0.52567       -6.40108
C          0.65476       -2.62423       -2.66287
C         -0.13549        0.00405       -6.08216
C          6.26660        1.62803       -0.82390
C          7.14678        2.33610        1.32336
C          5.84174        2.47079        1.81730
C          7.35554        1.91701        0.00168
C          4.74820        2.18934        0.99463
C         -0.49669       -0.10855       -4.73693
H          4.44979        1.74595       -3.31084
H          6.43185        1.27346       -1.83969
H          2.31578        0.80335        0.23021
H          3.73751        2.33228        1.37681
H          7.99699        2.55723        1.96520
H          8.36728        1.80517       -0.38262
H          1.43503        0.62354       -7.43826
H          2.97375        1.30875       -5.57859
H         -0.82678       -0.31951       -6.85542
H          5.67542        2.80415        2.83950
H         -1.45871       -0.51599       -4.44022
N         -1.74302       -0.74650       -1.91282
O          0.00000        0.00000        0.00000
N         -2.24195       -1.98721       -2.03361
C         -3.59700       -1.97331       -2.22149
C         -3.29471        2.59306       -1.95723
N         -1.07009        1.69135       -1.73016
C         -2.78977        0.10583       -2.00872
C         -2.41420        1.50773       -1.90126
C         -4.37229       -3.19686       -2.41432
C         -3.97666       -0.62006       -2.20323
C         -2.78255        3.88698       -1.82740
C         -1.40536        4.06345       -1.64596
C         -5.75073       -3.20208       -2.11845
C         -5.88608       -5.53282       -2.77569
C         -4.51573       -5.53273       -3.07236
C         -6.50131       -4.36554       -2.30081
C         -3.75857       -4.37195       -2.89768
C         -0.58042        2.93710       -1.60155
H         -4.97754       -0.23634       -2.34404
H         -6.22454       -2.30509       -1.72331
H         -1.60735       -2.78520       -1.99159
H         -2.70128       -4.37649       -3.16385
H         -6.47265       -6.43867       -2.91443
H         -7.56325       -4.36472       -2.06393
H         -3.44951        4.74507       -1.86315
H         -4.35879        2.41840       -2.09284
H         -0.97117        5.05331       -1.53524
H         -4.03687       -6.43419       -3.44860
H          0.49273        3.01206       -1.45745
C          0.33971       -2.41720        0.86295
H          0.19682       -1.40046        0.49997
H          1.38755       -2.56744        1.11866
H         -0.27614       -2.57703        1.74674
H          0.05063       -3.12385        0.08642
