76
AJAVEO Co oxo CH4, charge 1 mult 2 bond 12 72
Br         5.05938       -2.79174       -1.76568
Br        -5.10450       -0.30571        0.87478
Co        -0.00000       -0.00000       -1.74666
N         -1.79368       -3.00621       -3.03218
N         -0.94353       -2.46939       -2.43942
N         -1.75105       -0.04351       -5.44160
N          0.31662        1.94235       -1.70985
N         -0.26567        0.08141       -3.75257
N         -1.94005        0.01822       -1.79062
N          1.79892        3.56406       -1.23377
N          1.93910       -0.05557       -1.72865
N         -0.02246       -1.95708       -1.81557
O          0.00000        0.00000        0.00000
C          0.85060       -1.61177       -5.10718
H          1.42051       -1.91529       -4.22232
H          1.45517       -1.82003       -5.99854
H         -0.06708       -2.21018       -5.14865
C         -1.53167        0.06406       -4.08670
C          3.94847        1.26489       -1.56964
H          4.40773        2.24494       -1.50830
C         -4.07334       -0.16314       -0.76627
C         -2.67924       -0.09222       -0.67739
H         -2.09784       -0.13824        0.24256
C         -3.91829       -0.06084       -3.16165
H         -4.35785       -0.07768       -4.15370
C          4.06249       -1.12622       -1.70819
C         -4.70923       -0.14984       -2.01140
H         -5.79051       -0.22472       -2.08562
C          0.56191        4.30544       -1.68045
C         -0.49002        3.16285       -1.39164
C          0.68173        4.63392       -3.17892
H          1.56625        5.25600       -3.35127
H         -0.20111        5.18775       -3.51868
H          0.77675        3.72064       -3.78022
C          2.55622        1.15582       -1.61576
C         -0.47848        0.36581       -6.12616
C          0.53582       -0.10507       -5.00577
C         -0.47741        1.89641       -6.30976
H         -1.28463        2.20204       -6.98938
H          0.46142        2.22857       -6.76613
H         -0.59634        2.41787       -5.34964
C          2.66345       -1.18195       -1.75373
H          2.09644       -2.10782       -1.80430
C          4.72278        0.10111       -1.62201
H          5.80750        0.15187       -1.59115
C          0.38303        5.57772       -0.85191
H          0.42373        5.37209        0.22272
H         -0.57979        6.04969       -1.08533
H          1.17210        6.29865       -1.10281
C         -0.86841        3.08352        0.10131
H         -1.42076        2.15687        0.28434
H         -1.50296        3.93401        0.38066
H          0.02290        3.07506        0.73872
C          1.83066        0.71136       -4.97925
H          1.65419        1.74703       -4.66887
H          2.29095        0.71660       -5.97619
H          2.54898        0.25695       -4.28868
C          1.58247        2.23976       -1.55728
C         -1.74390        3.26917       -2.26244
H         -1.51982        3.06655       -3.31562
H         -2.16696        4.27940       -2.18341
H         -2.50756        2.56419       -1.91892
C         -0.34535       -0.34448       -7.47286
H         -0.44859       -1.42838       -7.36691
H          0.62883       -0.11747       -7.92476
H         -1.12863        0.00894       -8.15442
C         -2.53015        0.02214       -3.02038
O         -2.97513        0.41866       -5.97840
O          3.03546        4.11643       -1.69202
H         -2.94995        1.40423       -5.91344
H          3.37180        4.57826       -0.89336
C          0.42387       -2.40387        0.86295
H          0.24558       -1.39274        0.49997
H          1.46874       -2.50681        1.15203
H         -0.21216       -2.59734        1.72547
H          0.19331       -3.11858        0.07432
