56
AKEMUY Fe oxo CH4, charge 1 mult 3 bond 35 52
Se        -2.47513        3.99774       -2.39027
Fe         0.00000        0.00000       -1.64896
N          1.84459        0.65299       -1.71829
N          0.34382       -0.11152       -3.72285
N         -0.50877        1.79721       -1.93521
C          2.51738        1.10162       -0.64544
C          3.78006        1.69329       -0.77072
C          4.35222        1.82819       -2.04058
C          3.63991        1.37464       -3.15709
C          2.37921        0.79907       -2.96466
C          1.51683        0.32801       -4.04046
C         -0.61814       -0.56517       -4.75132
C         -1.60420        0.58649       -5.03273
C          0.03896       -1.09115       -6.03502
C         -1.29513        2.68125       -2.10743
H          2.00433        0.98197        0.30531
H          4.29304        2.04666        0.11977
H          5.32980        2.28855       -2.16202
H          4.04043        1.47477       -4.16318
H          1.87632        0.37309       -5.07066
H         -1.16873       -1.38767       -4.27492
H         -2.07132        0.95141       -4.11366
H         -1.08000        1.42773       -5.50300
H         -2.38606        0.23333       -5.71640
H         -0.73263       -1.54725       -6.66654
H          0.50208       -0.28649       -6.62147
H          0.79798       -1.85479       -5.81632
N         -1.86162       -0.66914       -1.73064
C         -2.99502        0.04671       -1.63580
C         -4.25523       -0.56777       -1.65324
C         -4.34532       -1.95791       -1.76500
C         -3.16401       -2.70623       -1.84119
C         -1.93947       -2.03205       -1.81155
C         -0.64277       -2.69155       -1.82854
N          0.40808       -1.94384       -1.73055
O          0.00000        0.00000        0.00000
C          1.77454       -2.50873       -1.65139
C          2.19461       -2.52133       -0.16748
H          2.00723       -1.55088        0.30226
H          1.62167       -3.28142        0.37901
H          3.26156       -2.76459       -0.09370
C          1.91878       -3.88525       -2.31244
H          2.98166       -4.15368       -2.33518
H          1.39888       -4.67213       -1.74985
H          1.54595       -3.87835       -3.34576
H          2.40390       -1.78985       -2.19001
H         -0.58481       -3.77872       -1.90052
H         -3.18258       -3.79134       -1.91110
H         -5.31299       -2.45370       -1.78213
H         -5.14398        0.05291       -1.57796
H         -2.89034        1.12365       -1.54899
C         -1.14596        2.15523        0.86295
H         -0.66394        1.24869        0.49997
H         -0.58163        3.02486        0.52949
H         -2.16055        2.20876        0.47098
H         -1.17771        2.13861        1.95135
