64
AKONEW Co oxo CH4, charge 1 mult 3 bond 10 60
Co        -0.00000        0.00000       -1.68401
O         -0.22591        1.85409       -1.82796
O         -5.54592        1.41507       -0.96282
O         -0.08173       -0.15993       -3.59901
O          4.54549        2.29128       -4.26479
N         -2.03209        4.59977       -0.45135
N         -1.88044       -0.34223       -1.69928
N          0.22957       -2.00652       -1.70990
N          1.89951        0.27544       -1.84159
N          0.36654        2.08697       -6.36056
O          0.00000        0.00000        0.00000
C         -1.06973        3.87661       -1.00970
C         -1.24368        2.46590       -1.27114
C         -2.50083        1.87031       -0.95485
C         -3.50724        2.67723       -0.35082
C         -3.20980        4.01659       -0.12038
C          0.22680        4.53968       -1.38473
C         -2.78605        0.50500       -1.32550
C         -2.16277       -1.70724       -2.14606
C         -1.12132       -2.59870       -1.46348
C          1.27405       -2.52224       -0.77752
C          2.65925       -1.92484       -1.05014
C          2.74033       -0.39825       -0.85045
C          2.41902        0.97251       -2.80724
C          1.68231        1.44873       -3.95571
C          2.21484        2.43732       -4.82257
C          1.50825        2.71262       -5.99300
C         -0.14171        1.13632       -5.57766
C          0.47611        0.78422       -4.32995
C         -4.84732        2.11229        0.08652
C          3.46775        3.21936       -4.50046
C         -1.40741        0.44454       -6.00525
H         -3.93942        4.66990        0.35833
H          0.40940        4.45140       -2.46547
H          0.18837        5.59607       -1.10437
H          1.06949        4.05113       -0.87531
H         -3.83957        0.20366       -1.32828
H         -2.04086       -1.73684       -3.23692
H         -3.18561       -2.00772       -1.88570
H         -1.27613       -2.59677       -0.37887
H         -1.16158       -3.63104       -1.83456
H          1.31373       -3.61793       -0.86771
H          0.93568       -2.26332        0.23199
H          2.99384       -2.17677       -2.06755
H          3.36317       -2.40025       -0.35415
H          2.36739       -0.12348        0.14460
H          3.77932       -0.06047       -0.96289
H          3.49677        1.16864       -2.80200
H          1.87044        3.47278       -6.68524
H         -4.71018        1.35987        0.87305
H         -5.46682        2.92067        0.50153
H          3.70134        3.88415       -5.34525
H          3.29695        3.85042       -3.61036
H         -2.20111        0.58648       -5.25776
H         -1.73495        0.85040       -6.96649
H         -1.24726       -0.63887       -6.10351
H         -5.78047        2.07494       -1.64675
H          5.34394        2.81834       -4.06026
H          0.50545       -2.15587       -2.68973
C          1.22048        2.11393        0.86295
H          0.70711        1.22475        0.49997
H          2.07608        1.81755        1.46794
H          1.56270        2.70669        0.01594
H          0.53601        2.70671        1.46794
