46
ALEFOP Co oxo CH4, charge 0 mult 4 bond 4 42
Co         0.00000        0.00000       -1.63199
S          0.54172       -2.41454       -1.97671
O         -1.84715       -0.49889       -1.88718
N          0.00000        0.00000       -3.70326
O          0.00000        0.00000        0.00000
C          1.41204       -1.98508       -3.55842
H          2.36778       -1.55849       -3.22332
H          1.59873       -2.89453       -4.13982
C          0.65737       -0.97165       -4.37480
C          0.66031       -1.00721       -5.77366
H          1.18480       -1.80780       -6.28941
C          0.00000        0.00000       -6.48113
H          0.00000        0.00000       -7.56933
C         -1.12597       -2.73326       -2.52853
C         -2.10643       -1.70528       -2.36242
C         -3.44057       -2.01928       -2.74285
H         -4.19535       -1.24556       -2.61592
C         -3.76869       -3.27156       -3.25188
H         -4.80166       -3.47507       -3.53335
C         -2.79414       -4.27758       -3.39926
H         -3.06197       -5.25732       -3.78921
C         -1.48071       -4.00297       -3.02108
H         -0.71077       -4.76963       -3.10258
S         -0.54172        2.41454       -1.97671
O          1.84715        0.49889       -1.88718
C         -1.41204        1.98508       -3.55842
H         -2.36778        1.55849       -3.22332
H         -1.59873        2.89453       -4.13981
C         -0.65737        0.97166       -4.37480
C         -0.66031        1.00721       -5.77366
H         -1.18480        1.80780       -6.28941
C          1.12597        2.73326       -2.52853
C          2.10643        1.70528       -2.36242
C          3.44057        2.01928       -2.74285
H          4.19535        1.24556       -2.61592
C          3.76869        3.27156       -3.25188
H          4.80166        3.47508       -3.53335
C          2.79414        4.27758       -3.39926
H          3.06197        5.25732       -3.78921
C          1.48071        4.00297       -3.02108
H          0.71077        4.76963       -3.10257
C          1.92350       -1.50280        0.86295
H          1.11442       -0.87068        0.49997
H          2.36985       -1.04937        1.74674
H          1.52970       -2.48537        1.11866
H          2.68001       -1.60578        0.08642
