42
ALUMAW Co oxo CH4, charge 1 mult 4 bond 22 38
Co         0.00000        0.00000       -1.62488
S          1.96529       -3.43105       -3.24886
O         -0.22712        2.09938       -1.75433
O         -4.34962        2.95763       -1.90777
N         -0.07116       -2.02651       -1.87889
N         -2.04530        0.16859       -1.76958
N         -1.75956        3.76825       -1.84751
C          0.80398       -2.63323       -2.44578
C         -2.51597        1.43532       -1.81300
C         -3.90554        1.66729       -1.85867
C         -4.77828        0.56496       -1.85158
C         -4.25145       -0.72252       -1.80326
C         -2.85927       -0.89204       -1.76279
C         -1.43039        2.46757       -1.80191
H         -5.32840        2.98237       -1.92308
H         -5.85586        0.72444       -1.88139
H         -4.90556       -1.59029       -1.79415
H         -2.36602       -1.85973       -1.72445
H         -1.01242        4.45614       -1.81905
H         -2.73052        4.06910       -1.87357
O          0.17299        0.13411       -3.59638
O          4.22445       -0.22069       -4.66442
O          0.00000        0.00000        0.00000
N          2.03304        0.04736       -1.79491
N          1.59197        0.05161       -5.36509
C          2.47406       -0.01135       -3.07548
C          3.84596       -0.15850       -3.35716
C          4.74924       -0.24410       -2.28615
C          4.26115       -0.18809       -0.98239
C          2.88392       -0.04168       -0.76579
C          1.35855        0.05296       -4.04874
H          5.18491       -0.39719       -4.73631
H          5.81461       -0.36600       -2.47733
H          4.93756       -0.25967       -0.13498
H          2.43836       -0.00204        0.22379
H          0.79845        0.01151       -5.99857
H          2.53254       -0.10209       -5.72098
C         -0.42387       -2.40387        0.86295
H         -0.24558       -1.39274        0.49997
H          0.50214       -2.97501        0.81585
H         -0.77328       -2.36324        1.89357
H         -1.17875       -2.88448        0.24241
