40
AMGZCO Co oxo CH4, charge 2 mult 3 bond 1 36
Co         0.00000        0.00000       -1.65520
O          0.00000        0.00000        0.00000
N          1.18713       -1.64647       -1.60027
N         -0.25715       -0.00109       -3.69092
N         -0.94786        1.72884       -1.73265
N         -1.84691       -0.83682       -1.67402
C          2.53672       -1.17099       -1.14097
C          2.72848        0.26658       -1.63125
C         -0.21623        1.45480       -4.08776
C         -1.15178        2.21460       -3.15181
C         -2.21558        1.52078       -0.95177
C         -2.88742        0.25451       -1.48832
C         -1.97823       -1.61764       -2.94924
C         -1.52264       -0.72111       -4.10014
O          1.58253        0.89624       -1.97552
O          3.78304        0.85608       -1.71976
H          1.26581       -2.12200       -2.50659
H          0.80644       -2.32877       -0.93494
H          0.55176       -0.45404       -4.13176
H         -0.31256        2.36556       -1.23240
H         -1.89762       -1.47394       -0.87065
H          3.33559       -1.82026       -1.51320
H          2.54800       -1.17260       -0.04494
H         -0.51670        1.57577       -5.13666
H          0.81800        1.78532       -3.96528
H         -2.20383        2.05338       -3.40736
H         -0.95729        3.29214       -3.19155
H         -2.87224        2.39477       -1.05569
H         -1.93069        1.41078        0.09979
H         -3.35982        0.43162       -2.45975
H         -3.66431       -0.09489       -0.79973
H         -1.34182       -2.50505       -2.85307
H         -3.01331       -1.95775       -3.09039
H         -2.27954        0.03388       -4.33502
H         -1.35064       -1.30461       -5.01133
C          1.75587        1.69563        0.86295
H          1.01731        0.98240        0.49997
H          2.32042        1.24932        1.68027
H          2.43528        1.95831        0.05344
H          1.25048        2.59248        1.21812
