58
AMIQES Mn oxo CH4, charge 1 mult 4 bond 27 54
Mn        -0.00000        0.00000       -1.65205
Cl         0.45924        2.17519       -2.01062
Cl         1.56630       -1.67018      -10.38461
O          0.22457       -0.28829       -3.74278
N          1.94208       -0.42989       -1.78343
N          1.78715       -0.68418       -5.37663
H          2.76036       -0.92449       -5.54505
C          2.73286       -0.45098       -0.69545
H          2.21151       -0.27817        0.24349
C          4.10998       -0.66358       -0.80700
H          4.72800       -0.67103        0.08671
C          4.66483       -0.85067       -2.07694
H          5.73424       -1.00863       -2.19682
C          3.83150       -0.82305       -3.20259
H          4.26535       -0.95288       -4.19156
C          2.46122       -0.61021       -3.02647
C          1.41330       -0.51977       -4.08795
C          0.98833       -0.59885       -6.54969
C         -0.28984       -0.01386       -6.56570
H         -0.71979        0.39108       -5.65801
C         -0.97972        0.04795       -7.78074
H         -1.96584        0.50698       -7.80662
C         -0.42952       -0.45637       -8.96486
H         -0.97124       -0.40295       -9.90500
C          0.84643       -1.03125       -8.92001
C          1.56461       -1.10844       -7.72601
H          2.55431       -1.56188       -7.71664
O          0.00000        0.00000        0.00000
O         -0.50723       -1.92975       -1.72657
C         -1.75012       -2.16702       -1.77811
N         -2.24476       -3.41949       -1.83537
H         -3.25332       -3.50375       -1.93364
C         -1.54797       -4.65933       -1.82172
C         -0.18981       -4.77636       -1.47841
H          0.38917       -3.90010       -1.21463
C          0.38770       -6.05034       -1.47110
H          1.43593       -6.15413       -1.19873
C         -0.35034       -7.19398       -1.79695
H          0.10606       -8.17978       -1.78725
C         -1.70171       -7.04785       -2.13393
Cl        -2.65476       -8.45824       -2.54550
C         -2.31168       -5.79284       -2.14920
H         -3.36353       -5.70487       -2.41576
C         -2.68081       -1.00944       -1.77481
N         -2.00620        0.17432       -1.76305
C         -2.69120        1.33249       -1.73725
H         -2.08599        2.23457       -1.71681
C         -4.09010        1.35589       -1.73054
H         -4.60722        2.31133       -1.70639
C         -4.79365        0.14850       -1.74494
H         -5.88093        0.13674       -1.73231
C         -4.07740       -1.05392       -1.76572
H         -4.61522       -1.99961       -1.75943
C          0.08519        2.43946        0.86295
H          0.04936        1.41336        0.49997
H          1.12218        2.73375        1.01772
H         -0.37405        3.10030        0.12925
H         -0.45674        2.51045        1.80485
