49
ANEGIK Co oxo CH4, charge 2 mult 3 bond 2 45
Co         0.00000        0.00000       -1.65252
N          3.03817        0.16779       -1.94804
O          0.00000        0.00000        0.00000
C          1.87189        0.10641       -1.80942
N         -1.97960       -0.21310       -1.78877
C         -2.88272        0.78455       -1.81893
H         -2.49284        1.79627       -1.77221
C         -4.25366        0.52641       -1.89456
H         -4.95647        1.35492       -1.91170
C         -4.68779       -0.80379       -1.93719
H         -5.74819       -1.03794       -1.99371
C         -3.74358       -1.83492       -1.89887
H         -4.06465       -2.87214       -1.92350
C         -2.38193       -1.51595       -1.81907
C         -1.28956       -2.49399       -1.74411
C         -1.45393       -3.88399       -1.71500
H         -2.44924       -4.31611       -1.76316
C         -0.32964       -4.71064       -1.60861
H         -0.44997       -5.79100       -1.57776
C          0.94219       -4.13262       -1.53163
H          1.84033       -4.73711       -1.43722
C          1.05998       -2.74046       -1.56734
H          2.01869       -2.23535       -1.50632
N         -0.03298       -1.95466       -1.68568
N          0.02677        1.93553       -1.75558
C          0.10003        2.72680       -0.66310
H          0.09520        2.22447        0.30061
C          0.18731        4.11405       -0.78763
H          0.24535        4.72575        0.10866
C          0.21317        4.67987       -2.06863
H          0.29136        5.75714       -2.19451
C          0.15282        3.84643       -3.19050
H          0.18620        4.26880       -4.19053
C          0.06914        2.45959       -3.01660
C          0.04728        1.46179       -4.08874
C          0.08938        1.75238       -5.45732
H          0.11927        2.78317       -5.79817
C          0.10791        0.70232       -6.38044
H          0.15013        0.91288       -7.44631
C          0.08348       -0.61701       -5.91378
H          0.10896       -1.46179       -6.59662
C          0.03866       -0.84668       -4.53717
H          0.03602       -1.85063       -4.12837
N          0.01148        0.16844       -3.65156
C          2.42758       -0.25515        0.86295
H          1.40648       -0.14783        0.49997
H          2.44068       -0.14861        1.94665
H          2.80834       -1.23828        0.59022
H          3.05482        0.51413        0.41496
