52
ANUMOO Co oxo CH4, charge 0 mult 2 bond 9 48
Co        -0.00000        0.00000       -1.73264
N         -1.89991        0.53679       -1.84279
N         -2.28837        1.37329       -1.03697
N         -2.73332        2.17710       -0.31586
N          1.88620       -0.56504       -1.87836
N          3.05324       -1.23318        0.09761
C         -1.48173       -2.22435       -0.81857
H         -1.82945       -1.42586       -0.17083
N          2.44657       -0.90678       -0.84462
O          0.00000        0.00000        0.00000
C         -1.93222       -3.55387       -0.70411
C         -1.36812       -4.51383       -1.56592
H         -1.68899       -5.55384       -1.51123
N         -0.54860       -1.86572       -1.71388
C         -0.38954       -4.11789       -2.48027
H          0.07415       -4.84416       -3.14398
N         -2.94878       -3.87104        0.19772
H         -3.05921       -3.20718        0.96115
H         -2.94083       -4.83040        0.53561
C          0.00855       -2.78236       -2.53554
H          0.78931       -2.41882       -3.19453
N         -0.00188       -0.00085       -3.79968
C          1.12257        0.31296       -4.46666
H          1.99555        0.50061       -3.84406
N          2.39014        0.63067       -6.51659
H          3.08381        1.11370       -5.95105
H          2.31230        1.03039       -7.44811
C          1.18369        0.36115       -5.87368
N          0.55115        1.86971       -1.70230
C          0.00615        0.06157       -6.58741
H          0.00649        0.08170       -7.67710
N         -0.18834        5.00888       -3.46663
H         -0.21526        5.97777       -3.15524
H         -1.09971        4.72114       -3.81861
C         -1.15165       -0.26723       -5.88021
H         -2.07213       -0.50480       -6.40936
C         -1.13144       -0.29002       -4.48421
H         -2.00507       -0.50886       -3.87867
C          0.01478        2.76361       -2.55258
H         -0.73576        2.37489       -3.23639
C          0.36533        4.12474       -2.53310
C          1.32902        4.53481       -1.59184
H          1.63550        5.57954       -1.54410
C          1.86794        3.59285       -0.71482
H          2.59975        3.88937        0.03298
C          1.45691        2.26016       -0.78058
H          1.78462        1.49222       -0.08967
C          1.43475       -1.97477        0.86295
H          0.83126       -1.14413        0.49997
H          2.18968       -1.60068        1.55292
H          0.79529       -2.69036        1.37766
H          1.92279       -2.46391        0.02124
