67
ATAPOC Co oxo CH4, charge 2 mult 4 bond 6 63
Co         0.00000        0.00000       -1.62563
O         -0.16909       -2.06140       -1.73185
O         -2.01837        0.22396       -1.75179
O         -0.06097        0.01555       -3.56525
O          2.02384       -0.23580       -1.75687
O          0.30215        2.03244       -1.75852
O          0.00000        0.00000        0.00000
N         -4.03321        0.59727       -0.72903
N         -1.28051       -3.89383       -2.53809
N          0.72674        0.79288       -5.56415
N          3.86898       -1.36343       -0.99471
N          0.89413        4.00606       -0.75597
C         -0.46322       -4.85007       -1.77533
H          0.21478       -4.29042       -1.12901
H          0.10769       -5.47960       -2.46865
H         -1.12186       -5.48463       -1.17109
C         -2.32906       -4.44775       -3.40734
H         -2.86077       -3.63125       -3.90543
H         -3.03607       -5.02997       -2.80455
H         -1.87649       -5.10172       -4.16236
C          4.46191       -2.28901       -0.01479
H          3.69026       -2.62832        0.68226
H          5.25524       -1.77518        0.54050
H          4.88823       -3.15241       -0.53890
C         -1.07389       -2.57975       -2.45331
H         -1.74317       -1.95256       -3.05258
C          4.76756       -0.80070       -2.01398
H          4.19101       -0.13844       -2.66160
H          5.20519       -1.61678       -2.60093
H          5.57036       -0.24048       -1.52031
C          2.57812       -1.04726       -0.94772
H          1.99539       -1.52361       -0.15255
C          1.75872        1.52853       -6.31314
H          2.50362        1.92368       -5.61640
H          1.29236        2.35564       -6.86078
H          2.24586        0.85251       -7.02554
C          0.79536        0.67027       -4.24424
H          1.63422        1.16492       -3.74765
C          1.35126        4.71865        0.44853
H          1.47061        4.00745        1.27113
H          0.61273        5.47953        0.72697
H          2.31195        5.20553        0.24378
C          0.68578        2.69171       -0.74236
H          0.85491        2.18665        0.21633
C          0.67800        4.80552       -1.97191
H          0.26739        4.15662       -2.74748
H          1.63081        5.23764       -2.30113
H         -0.02546        5.61581       -1.74824
C         -4.80440        0.75265        0.51559
H         -4.13287        0.67418        1.37563
H         -5.56638       -0.03324        0.57578
H         -5.29487        1.73302        0.52161
C         -2.72087        0.38453       -0.70378
H         -2.25166        0.35054        0.28717
C         -4.77476        0.67795       -1.99759
H         -4.06356        0.61459       -2.82307
H         -5.31495        1.63082       -2.03735
H         -5.49610       -0.14642       -2.05222
C         -0.36670        0.18582       -6.34078
H         -1.10012       -0.22767       -5.64690
H          0.03766       -0.60537       -6.98343
H         -0.82997        0.95775       -6.96537
C         -0.75430       -2.32148        0.86295
H         -0.43702       -1.34501        0.49997
H          0.03594       -3.04930        0.68481
H         -0.95963       -2.26265        1.93079
H         -1.65647       -2.62897        0.33622
