47
AVODUK Co oxo CH4, charge 3 mult 3 bond 11 43
Co        -0.00000       -0.00000       -1.65396
N         -0.70382       -1.88664       -1.65500
H         -1.58448       -1.97912       -1.12992
H         -0.89614       -2.22936       -2.60574
N          1.74522       -0.91550       -1.76489
N          0.74961        1.79773       -1.76425
N         -0.11663        0.16924       -3.68706
H          0.21038       -0.68866       -4.14938
N         -1.82690        0.86972       -1.69533
H         -2.54025        0.19672       -1.38296
H         -1.84211        1.62909       -1.00068
O          0.00000        0.00000        0.00000
C          0.34838       -2.74836       -1.00214
H          0.18333       -3.80283       -1.25409
H          0.23867       -2.62647        0.08488
C          1.69251       -2.24395       -1.44408
C          2.85104       -3.02420       -1.45548
H          2.78579       -4.08233       -1.20859
C          4.07973       -2.42773       -1.76905
H          4.99223       -3.02129       -1.77473
C          4.11841       -1.05739       -2.06056
H          5.05210       -0.54799       -2.28872
C          2.93210       -0.32186       -2.04775
H          2.92576        0.74423       -2.24227
C          0.97087        2.56684       -0.66456
H          0.76764        2.11569        0.30454
C          1.44949        3.87079       -0.79490
H          1.62165        4.46223        0.10215
C          1.69142        4.38630       -2.07679
H          2.05519        5.40466       -2.20271
C          1.46100        3.57733       -3.19960
H          1.64631        3.94884       -4.20608
C          0.98999        2.27383       -3.02154
C          0.79728        1.28417       -4.14051
H          0.38937        1.75935       -5.04158
H          1.75811        0.83106       -4.41718
C         -1.57044        0.38709       -4.05951
H         -2.08138       -0.58178       -3.99554
H         -1.64639        0.73860       -5.09625
C         -2.15190        1.38587       -3.07247
H         -1.70268        2.37822       -3.17387
H         -3.23928        1.48385       -3.18616
C         -2.38761       -0.50750        0.86295
H         -1.38332       -0.29403        0.49997
H         -3.00542       -0.85706        0.03709
H         -2.33975       -1.27737        1.63166
H         -2.82195        0.39845        1.28307
