48
AXIKUN Co oxo CH4, charge 3 mult 3 bond 1 44
Co         0.00000       -0.00000       -1.66452
O          0.00000        0.00000        0.00000
S         -0.27841       -0.10217       -3.96693
N         -0.71623       -1.89988       -1.74156
H         -0.39768       -2.31634       -0.85476
H         -1.74294       -1.88331       -1.67024
N         -1.80663        0.93747       -1.74332
H         -2.55924        0.23802       -1.68278
H         -1.85476        1.45338       -0.85300
N          0.83695        1.85123       -1.72447
H          1.06590        2.07721       -0.74477
H          1.74073        1.77990       -2.20715
N          1.86039       -0.79961       -1.75217
H          2.45969       -0.14568       -2.26965
H          2.21175       -0.79226       -0.78258
C          2.05214       -2.17822       -2.34545
H          1.93507       -2.91164       -1.53990
H          3.09125       -2.23101       -2.69851
C         -0.07315        1.65021       -4.51191
H          0.98453        1.92216       -4.61673
H         -0.54447        1.69567       -5.50280
C         -0.84551        2.56569       -3.50051
C          1.07824       -2.47027       -3.50440
C          1.03929       -1.27474       -4.51782
H          0.71173       -1.62388       -5.50613
H          2.00826       -0.77246       -4.62941
C         -0.32283       -2.79338       -2.91215
H         -1.11014       -2.71670       -3.66967
H         -0.32001       -3.82074       -2.52448
C          0.07028        3.00252       -2.33983
H          0.81635        3.72562       -2.69650
H         -0.50987        3.48444       -1.54520
C         -1.29945        3.83196       -4.27341
H         -0.45453        4.27916       -4.81144
H         -1.70411        4.58385       -3.58362
H         -2.07824        3.58166       -5.00438
C          1.58208       -3.72035       -4.27246
H          0.83526       -4.05081       -5.00472
H          1.77418       -4.54894       -3.57859
H          2.51330       -3.49723       -4.80750
C         -2.10624        1.87309       -2.90978
H         -2.78502        2.64238       -2.51889
H         -2.64395        1.29618       -3.66968
C         -2.26321       -0.91440        0.86295
H         -1.31125       -0.52978        0.49997
H         -2.73065       -1.51808        0.08642
H         -2.09371       -1.52766        1.74674
H         -2.91724       -0.08207        1.11866
