54
AXUZAV Mn oxo CH4, charge 0 mult 3 bond 3 50
Mn        -0.00000       -0.00000       -1.63462
O         -1.36883       -1.24716       -1.82246
O          1.30100       -1.22173       -2.07599
O          0.00000        0.00000        0.00000
N         -1.28178        1.53208       -1.42692
N          1.32980        1.48399       -1.67056
N         -0.24768        0.42680       -3.65569
N          0.19169        1.40237       -4.22441
N          0.60824        2.34535       -4.78963
C         -2.56677       -1.15223       -1.28959
C         -3.33075       -2.34130       -1.14929
C         -4.61908       -2.30494       -0.63238
C         -5.21652       -1.08501       -0.24297
C         -4.49521        0.09052       -0.38552
C         -3.17098        0.09055       -0.89504
C         -2.51256        1.35629       -1.04732
C         -0.64186        2.85510       -1.54580
C         -1.35912        4.01080       -0.83381
C         -0.54184        5.30944       -0.98410
C          0.89513        5.13591       -0.46390
C          1.60884        3.97326       -1.18063
C          0.80046        2.68421       -1.00370
C          2.44847        1.45795       -2.32809
C          2.95168        0.29361       -3.01007
C          4.09855        0.43037       -3.82517
C          4.64252       -0.66177       -4.49181
C          4.04433       -1.92888       -4.33552
C          2.92000       -2.09824       -3.53261
C          2.34412       -0.99514       -2.85793
H         -2.86644       -3.27535       -1.45636
H         -5.17657       -3.23515       -0.52749
H         -6.22776       -1.06907        0.15739
H         -4.93925        1.04530       -0.10086
H          4.54451        1.41917       -3.93276
H          5.51783       -0.54033       -5.12597
H          4.46327       -2.79095       -4.85289
H          2.45075       -3.07054       -3.40526
H         -3.11868        2.24071       -0.83006
H          3.05671        2.36420       -2.38480
H         -1.48182        3.76079        0.23188
H         -2.36150        4.15758       -1.25997
H         -0.51257        5.59637       -2.04698
H         -1.04689        6.12375       -0.44654
H          1.46559        6.06363       -0.60777
H          0.87311        4.93666        0.61922
H          1.70418        4.20035       -2.25434
H          2.62163        3.84343       -0.77247
H         -0.56318        3.08713       -2.61932
H          0.72520        2.42156        0.06238
C          0.91440       -2.26321        0.86295
H          0.52978       -1.31125        0.49997
H          1.87722       -2.10506        1.34656
H          0.21353       -2.68826        1.57990
H          1.03706       -2.94827        0.02536
