47
AYIBUI Fe oxo CH4, charge 0 mult 3 bond 3 43
Fe        -0.00000       -0.00000       -1.65384
S          1.82254        1.50348       -1.65797
S         -1.86916       -1.33470       -1.85291
O          0.00000        0.00000        0.00000
C         -0.99120        1.52184       -1.70518
O         -1.63244        2.48191       -1.70417
N          0.27432        0.03233       -3.86103
N          1.16046       -1.72597       -1.70582
C          2.07224        1.69557       -3.39411
C          3.06618        2.58119       -3.87309
H          3.64090        3.15865       -3.15131
C          3.31048        2.71601       -5.23858
H          4.08018        3.40582       -5.58177
C          2.56887        1.96864       -6.16647
H          2.75589        2.06501       -7.23417
C          1.57826        1.09690       -5.70801
H          1.00398        0.51686       -6.42871
C          1.32222        0.96556       -4.33406
C          0.72872       -1.38173       -4.09288
H          1.11272       -1.48984       -5.11795
H         -0.14274       -2.03536       -3.96300
C         -0.99820        0.28620       -4.60781
H         -1.78221       -0.33886       -4.16985
H         -0.88624        0.04165       -5.67292
H         -1.25378        1.34493       -4.50765
C         -1.04773       -2.87983       -1.60642
C         -1.79772       -4.07000       -1.47419
H         -2.88409       -4.00809       -1.49973
C         -1.16353       -5.30064       -1.30949
H         -1.76119       -6.20490       -1.20421
C          0.23704       -5.37384       -1.27486
H          0.74044       -6.33004       -1.14635
C          0.99020       -4.20331       -1.39978
H          2.07673       -4.26404       -1.37257
C          0.35477       -2.96214       -1.55436
C          1.80088       -1.70632       -3.06663
H          2.57157       -0.92567       -3.05561
H          2.27136       -2.67835       -3.27181
C          2.20846       -1.65731       -0.63744
H          2.72259       -0.69664       -0.73389
H          2.92686       -2.48002       -0.74773
H          1.70431       -1.71436        0.32953
C         -1.69563        1.75587        0.86295
H         -0.98240        1.01731        0.49997
H         -1.56723        2.68611        0.31151
H         -2.70884        1.38433        0.71713
H         -1.52403        1.93574        1.92319
