45
AYICIX Fe oxo CH4, charge 0 mult 3 bond 5 41
Fe         0.00000       -0.00000       -1.66614
S         -1.44019        1.88208       -1.86446
S          0.18245       -0.00830       -4.05621
S          1.82460        1.49528       -1.77120
P          1.40471       -1.82476       -1.46295
O          0.00000        0.00000        0.00000
O         -2.54569       -1.56027       -1.85899
C         -1.55634       -0.96344       -1.80480
C         -1.14855        2.39299       -3.52832
C         -1.65674        3.64615       -3.95092
H         -2.18535        4.26491       -3.22826
C         -1.47478        4.09588       -5.25717
H         -1.87093        5.06870       -5.54474
C         -0.78407        3.31362       -6.19803
H         -0.64084        3.66746       -7.21700
C         -0.28218        2.07142       -5.81022
H          0.25997        1.44880       -6.52033
C         -0.45336        1.62783       -4.48952
C          2.64880        0.92200       -3.21942
C          4.03146        1.14739       -3.41963
H          4.59576        1.67018       -2.64935
C          4.67106        0.70068       -4.57929
H          5.73846        0.88088       -4.70021
C          3.96397        0.01010       -5.57702
H          4.47185       -0.34657       -6.47074
C          2.59399       -0.21940       -5.40624
H          2.01936       -0.75493       -6.16081
C          1.95516        0.23808       -4.24533
C          1.90219       -2.85294       -2.90962
H          2.56776       -2.28072       -3.56507
H          1.01495       -3.14544       -3.48592
H          2.42213       -3.75891       -2.56758
C          2.98521       -1.44827       -0.61692
H          2.77078       -0.83307        0.26413
H          3.63488       -0.87324       -1.28651
H          3.48775       -2.37916       -0.31835
C          0.58912       -3.03971       -0.34743
H          0.27032       -2.51378        0.56018
H          1.27332       -3.85742       -0.08314
H         -0.29953       -3.45955       -0.83570
C         -1.97477        1.43475        0.86295
H         -1.14413        0.83126        0.49997
H         -2.12091        2.28689        0.20081
H         -2.88077        0.83087        0.88276
H         -1.75327        1.79001        1.86826
