44
AZIPIJ Co oxo CH4, charge 0 mult 4 bond 4 40
Co         0.00000        0.00000       -1.63153
O          1.87791       -0.90746       -1.79181
O          2.00324       -3.10651       -2.05524
O          0.04567       -2.09226       -1.81023
O          0.00000        0.00000        0.00000
N         -1.98496        0.61882       -1.72612
N          0.29162        2.07084       -1.74264
N         -0.00461        0.03840       -3.60388
N         -1.06081        1.71665       -5.08293
N         -0.38158        4.08947       -5.52365
N          1.34499       -2.09201       -1.89464
C         -3.07854       -0.15752       -1.69706
C         -4.36178        0.42539       -1.85456
H         -5.23493       -0.22205       -1.82824
C         -4.49596        1.78940       -2.05069
H         -5.47923        2.23669       -2.18735
C         -3.34406        2.61102       -2.08151
C         -3.37427        4.02808       -2.30461
H         -4.33867        4.50875       -2.45865
C         -2.21606        4.75988       -2.34465
H         -2.24261        5.82997       -2.53950
C         -0.94130        4.13352       -2.14819
C          0.29321        4.82389       -2.19874
H          0.30344        5.89233       -2.40398
C          1.47366        4.13043       -2.00151
H          2.43208        4.64211       -2.03920
C          1.45866        2.73097       -1.77073
C         -0.88183        2.73604       -1.91388
C         -2.09489        1.96309       -1.89541
C         -2.89212       -1.63673       -1.51179
H         -2.37784       -2.06691       -2.38141
H         -3.85849       -2.13677       -1.38545
H         -2.25982       -1.83607       -0.63810
C          2.72260        1.94202       -1.57866
H          2.64901        1.31211       -0.68395
H          3.58633        2.60910       -1.48743
H          2.88085        1.26734       -2.43031
C         -0.46763        0.89443       -4.30998
C         -0.64110        2.95733       -5.30516
C          1.29351       -2.07004        0.86295
H          0.74942       -1.19933        0.49997
H          2.11717       -1.74508        1.49691
H          0.62094       -2.70443        1.43839
H          1.68649       -2.63134        0.01653
