44
AZOFAX Mn oxo CH4, charge 1 mult 2 bond 2 40
Mn        -0.00000       -0.00000       -1.60181
I         -2.37426        1.02620       -2.18223
O          0.00000        0.00000        0.00000
N          0.04405       -0.41781       -3.71221
N         -0.51551       -2.15636       -5.26870
N         -1.56296       -3.59088       -3.09624
N         -0.86309       -1.77942       -1.68721
N          0.96285        1.76056       -1.78062
N          3.13004        2.68420       -2.25564
N          4.10327        0.04845       -2.31498
N          1.87942       -0.66758       -1.79874
C          0.49415        0.35390       -4.72222
H          0.86685        1.33822       -4.45222
C          0.45530       -0.09269       -6.04081
H          0.80851        0.53268       -6.85578
C         -0.05892       -1.37921       -6.26377
H         -0.11176       -1.80338       -7.26552
C         -0.45296       -1.64029       -4.03800
C         -0.98864       -2.40435       -2.89353
C         -2.08201       -4.19961       -2.01760
H         -2.55368       -5.16535       -2.19234
C         -2.02878       -3.62970       -0.73614
H         -2.46390       -4.12379        0.12812
C         -1.39457       -2.39755       -0.60567
H         -1.29008       -1.86205        0.33405
C          0.46119        3.00267       -1.59631
H         -0.59466        3.06123       -1.34899
C          1.27540        4.12660       -1.74124
H          0.87363        5.12392       -1.58636
C          2.61124        3.91677       -2.10654
H          3.29454        4.74741       -2.27637
C          2.29375        1.66562       -2.05889
C          2.81183        0.28177       -2.07998
C          4.50798       -1.22996       -2.22398
H          5.56279       -1.41315       -2.42267
C          3.63544       -2.27460       -1.88578
H          3.97884       -3.30063       -1.78887
C          2.29587       -1.94526       -1.68693
H          1.54007       -2.68329       -1.43642
C         -1.97477        1.43475        0.86295
H         -1.14413        0.83126        0.49997
H         -2.12091        2.28689        0.20081
H         -2.88077        0.83087        0.88276
H         -1.75327        1.79001        1.86826
