47
BAFHUN Fe oxo CH4, charge 2 mult 3 bond 41 43
Fe         0.00000       -0.00000       -1.63401
O         -0.02222       -0.04212       -4.82143
C         -0.00021       -0.00192       -3.67946
N         -2.01359       -0.34900       -1.64584
H         -2.32755       -0.56353       -2.60177
N          0.53346       -1.97424       -1.65864
H          0.45847       -2.34402       -2.61575
N          1.99934        0.38492       -1.66276
H          2.16167        0.58110       -0.66562
N         -0.49307        1.97474       -1.65203
H         -0.37167        2.20038       -0.65520
C         -2.46095       -1.48855       -0.77284
H         -3.55189       -1.57523       -0.86966
H         -2.21869       -1.20692        0.25768
C         -1.78633       -2.80761       -1.14979
H         -1.93827       -3.03895       -2.21669
H         -2.29411       -3.60798       -0.59601
C         -0.30359       -2.86327       -0.78177
H         -0.14471       -2.52652        0.24850
H          0.07819       -3.88842       -0.88324
C          1.98452       -2.01775       -1.26606
H          2.41534       -2.99839       -1.50437
H          2.02407       -1.86735       -0.18094
C          2.70589       -0.89622       -1.99572
H          3.76166       -0.83820       -1.70100
H          2.66218       -1.02979       -3.08501
C          2.51305        1.55458       -2.44881
H          2.36503        1.33123       -3.51349
H          3.59465        1.63274       -2.27184
C          1.82337        2.86259       -2.05575
H          1.95030        3.05494       -0.97892
H          2.34302        3.68041       -2.57170
C          0.34438        2.93718       -2.44063
H         -0.04049        3.94979       -2.25688
H          0.19789        2.71285       -3.50522
C         -1.95619        2.07757       -1.96696
H         -2.07220        1.98663       -3.05520
H         -2.34485        3.05756       -1.66112
C         -2.65870        0.94619       -1.23401
H         -2.52056        1.03752       -0.15039
H         -3.73318        0.92480       -1.45512
O          0.00000        0.00000        0.00000
C          1.36496        2.02364        0.86295
H          0.79082        1.17245        0.49997
H          2.15500        1.67274        1.52524
H          1.80661        2.55034        0.01829
H          0.70741        2.69903        1.40828
