50
BAFTAG Mn oxo CH4, charge 1 mult 2 bond 1 46
Mn        -0.00000       -0.00000       -1.60172
O          0.00000        0.00000        0.00000
N          0.11283        0.43409       -3.71733
N         -1.61873       -1.18181       -1.75963
N          1.58390        1.18174       -1.69176
C         -2.84243       -0.52156       -1.83590
N          1.27503        1.41862       -5.35752
H          2.01173        1.93602       -5.82457
N         -1.42945        1.39582       -1.73904
C         -0.50749        0.13802       -4.92042
C          2.02522        1.62741       -2.93532
C          3.17899        2.37595       -2.87985
H          3.73073        2.83305       -3.69231
C         -1.52789        2.77884       -1.77923
C         -2.67446        0.91126       -1.83414
N         -3.59045        1.91452       -1.93910
H         -4.59620        1.80133       -2.00741
C          1.17090        1.19286       -4.01407
C         -1.64590       -0.63417       -5.20368
H         -2.19887       -1.13104       -4.41266
C          0.21808        0.75569       -5.97562
C         -1.29478       -0.12537       -7.57880
H         -1.62477       -0.24943       -8.60764
C         -2.90036        3.12491       -1.90624
C         -1.75528       -2.49128       -1.77427
H         -0.90089       -3.16008       -1.72842
C         -3.92882       -1.36166       -1.92039
H         -4.98058       -1.11096       -1.98960
C         -0.54797        3.78138       -1.70819
H          0.50156        3.53299       -1.59445
C          2.38164        1.56070       -0.71255
H          2.19724        1.28290        0.31906
C         -2.02390       -0.75244       -6.54022
H         -2.89643       -1.34919       -6.79696
C         -0.98237        5.10433       -1.77325
H         -0.25122        5.90758       -1.71596
C         -0.15711        0.64068       -7.31802
H          0.40638        1.11416       -8.11854
S         -3.39979       -3.01278       -1.89042
S          3.72760        2.50471       -1.24184
C         -3.34061        4.45080       -1.96990
H         -4.39368        4.70526       -2.06310
C         -2.35254        5.43444       -1.90285
H         -2.64428        6.48116       -1.94593
Cl         1.35404       -1.76349       -2.12361
C          1.14596       -2.15523        0.86295
H          0.66394       -1.24869        0.49997
H          2.03163       -1.88996        1.43839
H          0.45271       -2.70607        1.49690
H          1.43555       -2.77621        0.01653
