54
BAHYIS Fe oxo CH4, charge 2 mult 3 bond 1 50
Fe         0.00000        0.00000       -1.64979
O          0.00000        0.00000        0.00000
S         -2.31421        0.29141       -1.54412
C         -2.56816        1.81410       -0.50603
C         -1.34088        2.71071       -0.29684
C         -0.52758        3.00320       -1.57309
N          0.44975        1.92371       -1.81083
C          1.73151        2.18044       -1.93179
C          2.58403        0.97368       -1.95406
N          1.85456       -0.15878       -1.85172
C          2.39411       -1.39377       -1.80267
C          1.35780       -2.45003       -1.76434
N          0.13441       -1.98214       -1.77732
C         -1.05764       -2.82398       -1.90232
C         -1.85351       -2.47034       -3.19432
C         -1.02415       -1.85917       -4.33283
S         -0.30453       -0.16708       -4.04681
C         -1.74125        0.96508       -4.27645
C         -2.87020        0.81065       -3.24814
C          2.33557        3.55694       -1.99241
C          3.98220        0.88407       -2.01847
C          4.57730       -0.38575       -1.95712
C          3.78823       -1.54042       -1.85084
C          1.78879       -3.88856       -1.74955
H         -3.43048        1.74810       -3.14969
H         -3.58274        0.04142       -3.56449
H          5.66038       -0.47422       -1.99413
H          2.48519       -4.04441       -0.91370
H          0.96314       -4.59150       -1.63176
H          2.32897       -4.13313       -2.67577
H          4.24833       -2.52372       -1.80800
H          2.36292        4.00615       -0.98816
H          3.36116        3.52045       -2.36932
H          1.76121        4.22030       -2.64840
H         -1.67998       -2.63913       -1.01839
H         -0.78187       -3.88155       -1.91376
H         -2.12324        0.82118       -5.29539
H         -1.28614        1.96089       -4.23695
H         -2.92782        1.42339        0.45224
H         -3.39754        2.35252       -0.98081
H          4.59917        1.77379       -2.10242
H         -0.67966        2.27056        0.45778
H         -1.70604        3.66655        0.10307
H         -2.70089       -1.82429       -2.94439
H         -2.29240       -3.40118       -3.57861
H         -1.62216       -1.77300       -5.24852
H         -0.14985       -2.47527       -4.57819
H         -0.00883        3.96021       -1.46857
H         -1.18576        3.07493       -2.44953
C         -1.29351       -2.07004        0.86295
H         -0.74942       -1.19933        0.49997
H         -0.83257       -2.97548        0.47097
H         -1.26325       -2.08923        1.95135
H         -2.32879       -2.01614        0.52949
