137
BAJKON Fe oxo CH4, charge 2 mult 3 bond 65 133
Fe        -0.00000       -0.00000       -1.68238
P         -1.19793       -1.97250       -1.55122
P         -2.08447        1.04505       -1.60885
O          0.06119       -5.66858       -5.60395
O          1.58914       -5.45182       -1.52610
O         -3.65983        4.96896       -0.64956
O         -2.05651        4.25778        4.10123
O         -0.33145        0.13091       -4.67674
C         -2.66803       -1.46704       -0.54276
C         -3.35087       -0.26598       -1.22328
C         -1.97318       -2.67415       -3.07789
C         -1.05658       -3.46583       -4.03277
C         -1.89933       -4.28771       -5.03012
C         -1.05426       -4.91857       -6.14333
C         -0.41581       -3.36981       -0.66455
C         -1.29970       -4.63404       -0.50746
C         -0.45544       -5.87622       -0.15431
C          0.47830       -6.33837       -1.28866
C         -2.71116        1.84348       -3.16455
C         -3.84392        2.89138       -2.96212
C         -3.30899        4.34580       -2.99688
C         -4.00647        5.29020       -2.00433
C         -2.19747        2.28004       -0.26795
C         -2.46094        1.81037        1.17675
C         -2.55542        3.10489        2.01212
C         -2.37481        2.96375        3.52609
C         -0.15586        0.04156       -3.53489
H         -3.36310       -2.31086       -0.43208
H         -2.29372       -1.18863        0.45133
H         -4.13573        0.16064       -0.58511
H         -3.82935       -0.57054       -2.16373
H         -2.79194       -3.32150       -2.72466
H         -2.45033       -1.84389       -3.61904
H         -0.40738       -2.77263       -4.58350
H         -0.39738       -4.14654       -3.47868
H         -2.44566       -5.07111       -4.48212
H         -2.65663       -3.64357       -5.50443
H         -0.60811       -4.13940       -6.77285
H         -1.67447       -5.55442       -6.78827
H          0.49845       -3.65924       -1.19896
H         -0.10466       -2.99082        0.31928
H         -2.06242       -4.45953        0.26397
H         -1.83562       -4.84426       -1.44487
H          0.14151       -5.69199        0.75103
H         -1.14566       -6.70045        0.07985
H         -1.86231        2.30870       -3.68209
H         -3.03808        1.01181       -3.80618
H         -4.58410        2.75003       -3.75943
H         -4.37878        2.71094       -2.01849
H         -2.23625        4.35543       -2.75195
H         -3.39592        4.74004       -4.02013
H         -5.09732        5.19797       -2.07237
H         -3.74409        6.33464       -2.23431
H         -1.25107        2.82952       -0.26943
H         -2.96422        3.02361       -0.55108
H         -3.38963        1.22726        1.25012
H         -1.63602        1.17303        1.52466
H         -1.74098        3.76084        1.68299
H         -3.49383        3.62617        1.77666
H         -1.50751        2.33276        3.75725
H         -3.25160        2.53380        4.02920
P          1.25165        1.94996       -1.78196
C          2.70114        1.54707       -2.86055
C          3.38170        0.29091       -2.27700
P          2.11928       -1.00421       -1.76274
O          0.00000        0.00000        0.00000
C          2.58690       -1.53760       -0.03770
C          3.28102       -2.90883        0.05093
C          3.38900       -3.41429        1.50039
C          3.91978       -4.84566        1.57019
O          2.96382       -5.71251        0.90508
H          4.90324       -4.92143        1.08043
H          4.02502       -5.15674        2.61863
H          2.40021       -3.38373        1.98232
H          4.05770       -2.76825        2.08739
H          4.28339       -2.86239       -0.39947
H          2.70038       -3.63709       -0.52369
H          1.65055       -1.53806        0.53479
H          3.21276       -0.74427        0.39713
C          2.50875       -2.42633       -2.87138
C          2.40630       -2.15743       -4.38159
C          2.59163       -3.47482       -5.15752
C          2.18744       -3.35582       -6.63767
O          2.12690       -4.62037       -7.27405
H          1.21467       -2.82087       -6.69702
H          2.91604       -2.76056       -7.20199
H          1.95621       -4.24417       -4.69487
H          3.62931       -3.82716       -5.08012
H          3.15133       -1.41225       -4.69811
H          1.42081       -1.73996       -4.62606
H          1.87891       -3.28331       -2.59712
H          3.53902       -2.72332       -2.61903
H          4.07137       -0.15244       -3.00634
H          3.97247        0.55727       -1.39113
H          3.40155        2.39278       -2.90509
H          2.34045        1.35718       -3.88093
C          2.03807        2.33864       -0.15670
C          1.10741        3.03595        0.85515
C          1.88717        3.91369        1.85045
C          0.99101        4.50046        2.94257
O         -0.11619        5.22629        2.36069
H          0.59877        3.69223        3.57679
H          1.57453        5.17937        3.58075
H          2.38119        4.72933        1.29965
H          2.68377        3.33541        2.34275
H          0.51974        2.27308        1.38258
H          0.40371        3.69074        0.32943
H          2.90531        2.97769       -0.38946
H          2.42625        1.40248        0.26359
C          0.51070        3.52568       -2.38214
C          1.37946        4.80280       -2.24063
C          0.49875        6.07685       -2.25852
C         -0.04662        6.47907       -0.88343
O         -0.85097        5.41868       -0.30498
H         -0.32909        5.95011       -2.97230
H          1.09622        6.92306       -2.62633
H          2.11176        4.83296       -3.05786
H          1.95090        4.78311       -1.30211
H         -0.41220        3.67666       -1.81058
H          0.22069        3.37338       -3.43268
H         -0.65494        7.39008       -0.97661
H          0.78812        6.69747       -0.20253
H         -0.65587        5.40546        0.67499
H         -2.71618        5.24915       -0.52039
H         -0.87305        5.12284        2.99945
H         -0.18028       -6.61415       -5.57038
H          2.19848       -5.55598       -0.74962
H         -2.88995        4.75571        4.21979
H          0.84955       -7.35121       -1.06912
H         -0.06689       -6.38750       -2.24153
H          3.26920       -6.63386        1.02503
H          1.50596       -5.17479       -6.74250
C         -1.14596       -2.15523        0.86295
H         -0.66394       -1.24869        0.49997
H         -0.58163       -3.02486        0.52949
H         -1.17771       -2.13861        1.95135
H         -2.16055       -2.20876        0.47098
