136
BAJKIH Fe oxo CH4, charge 1 mult 3 bond 66 132
Br        -0.05794       -0.00951       -4.19793
Fe         0.00000        0.00000       -1.66447
P          0.71569        2.20938       -1.53044
P         -2.13209        0.92843       -1.64188
O          5.72233        1.85928       -1.23637
O         -1.14432        4.67469       -4.41347
O         -6.50064        0.92528        1.24159
O         -4.41779        2.75183       -5.97250
C         -0.67902        3.02565       -0.62578
C         -1.96847        2.77186       -1.42100
C          2.18829        2.70547       -0.52074
C          3.50046        2.62663       -1.31803
C          4.77274        2.58411       -0.45977
C          7.01047        1.76175       -0.62708
C          0.83302        3.11432       -3.12434
C          0.81918        4.65710       -3.07050
C          0.17738        5.20969       -4.34662
C         -1.82309        5.05294       -5.61684
C         -3.00709        0.49610       -0.06015
C         -4.51838        0.78322       -0.05663
C         -5.10815        0.66940        1.35019
C         -7.16126        0.82956        2.50052
C         -3.29642        0.66871       -3.06256
C         -3.43412        1.89103       -3.98764
C         -4.26589        1.55104       -5.22353
C         -5.13644        2.54326       -7.18625
H         -0.71651        2.55637        0.36803
H         -0.49654        4.09942       -0.48548
H         -1.91302        3.27366       -2.39584
H         -2.85277        3.15907       -0.89534
H          2.01397        3.72230       -0.13823
H          2.21123        2.03292        0.34869
H          3.51420        1.70394       -1.90954
H          3.56153        3.45325       -2.03733
H          4.58450        2.06454        0.50006
H          5.14378        3.59609       -0.22158
H          6.94671        1.29381        0.37062
H          7.60454        1.12915       -1.29209
H          7.48018        2.75370       -0.52523
H          1.71295        2.73480       -3.66273
H         -0.03008        2.76833       -3.70816
H          0.22930        5.02318       -2.21933
H          1.83471        5.05996       -2.95794
H          0.75502        4.90539       -5.23863
H          0.14756        6.31292       -4.31912
H         -1.23135        4.76869       -6.50305
H         -2.77365        4.51292       -5.62824
H         -2.00139        6.14057       -5.64156
H         -2.79932       -0.55151        0.18994
H         -2.48713        1.08670        0.70969
H         -4.72598        1.79407       -0.43870
H         -5.04636        0.07108       -0.70432
H         -4.62862        1.39500        2.03614
H         -4.92686       -0.34282        1.76155
H         -6.76182        1.56286        3.22272
H         -8.21876        1.04205        2.31609
H         -7.06105       -0.18172        2.93209
H         -2.87757       -0.16763       -3.63800
H         -4.27659        0.35954       -2.67440
H         -3.92162        2.72177       -3.45996
H         -2.44675        2.23776       -4.31843
H         -5.25704        1.15187       -4.93289
H         -3.75613        0.77733       -5.82780
H         -5.20096        3.51577       -7.68351
H         -4.61358        1.82826       -7.84437
H         -6.15445        2.16595       -6.98889
O          0.00000        0.00000        0.00000
P         -0.71237       -2.20781       -1.85204
C          0.65499       -3.13259       -2.69228
C          1.95071       -2.82261       -1.92914
P          2.12043       -0.97066       -1.75184
C          3.24761       -0.54925       -3.16341
C          4.73698       -0.83589       -2.89227
C          5.63290       -0.26952       -3.99480
O          6.97951       -0.50958       -3.59918
C          7.90885       -0.04965       -4.57804
H          7.76164       -0.56282       -5.54388
H          8.90767       -0.27982       -4.19448
H          7.81900        1.03881       -4.73852
H          5.42244       -0.75011       -4.96875
H          5.45219        0.81578       -4.10538
H          4.91436       -1.91685       -2.80424
H          5.05881       -0.36229       -1.95804
H          3.08403        0.50578       -3.42122
H          2.87405       -1.11803       -4.02685
C          3.04665       -0.69994       -0.17040
C          3.83081       -1.90462        0.37885
C          4.52554       -1.55157        1.69427
O          5.07035       -2.75846        2.21764
C          5.77262       -2.54398        3.44103
H          6.15201       -3.51949        3.75926
H          5.10665       -2.13565        4.22074
H          6.61865       -1.85060        3.29793
H          5.32602       -0.80484        1.53170
H          3.80064       -1.11336        2.40754
H          4.58103       -2.25466       -0.34171
H          3.14525       -2.73501        0.57964
H          2.27452       -0.38877        0.54826
H          3.72248        0.15009       -0.32906
H          1.91721       -3.28664       -0.93488
H          2.83331       -3.21923       -2.44934
H          0.69732       -2.77039       -3.72824
H          0.44833       -4.21140       -2.71531
C         -2.21959       -2.80249       -2.74365
C         -3.52626       -2.49117       -1.99584
C         -4.76531       -2.49503       -2.89439
O         -5.77198       -1.77729       -2.18499
C         -7.00833       -1.71590       -2.89804
H         -6.88301       -1.20758       -3.86965
H         -7.69797       -1.14345       -2.27128
H         -7.41759       -2.72420       -3.07309
H         -4.54519       -1.99534       -3.85671
H         -5.10197       -3.52208       -3.12098
H         -3.47230       -1.48750       -1.56004
H         -3.66877       -3.18506       -1.15706
H         -2.10557       -3.88234       -2.92124
H         -2.19675       -2.31023       -3.72774
C         -0.76463       -2.91041       -0.14772
C         -0.70539       -4.44493       -0.00018
C         -0.02927       -4.82970        1.31822
O          1.30026       -4.30621        1.28519
C          2.02913       -4.62138        2.47768
H          1.52506       -4.20498        3.36609
H          3.02285       -4.17434        2.37493
H          2.12379       -5.71255        2.60184
H         -0.57961       -4.41211        2.18130
H         -0.00323       -5.92755        1.43029
H         -0.12189       -4.90197       -0.81082
H         -1.71179       -4.88322       -0.03970
H         -1.65185       -2.49623        0.35192
H          0.09333       -2.45359        0.36347
C          0.42387        2.40387        0.86295
H          0.24558        1.39274        0.49997
H          1.46874        2.50681        1.15203
H          0.19331        3.11858        0.07432
H         -0.21216        2.59734        1.72547
