60
BAKQAJ Co oxo CH4, charge 1 mult 4 bond 37 56
Co         0.00000        0.00000       -1.64294
S         -2.10947        0.14609       -5.44539
N          1.25230       -1.55259       -1.72692
C          0.87172       -2.82481       -1.53716
H         -0.18241       -2.97543       -1.32230
O          1.88228        1.03944       -1.78814
N          3.97448        0.61872       -2.63933
H          4.57029       -0.11564       -3.01299
C          1.79052       -3.87646       -1.61325
H          1.45740       -4.89885       -1.45699
N         -0.00395       -0.00901       -3.57786
C          3.13157       -3.57972       -1.87683
H          3.87476       -4.37225       -1.92364
C          3.51536       -2.24688       -2.06635
H          4.56347       -2.00730       -2.23024
C          2.54102       -1.24405       -1.99806
C          2.77772        0.23093       -2.14386
C          4.46359        1.93900       -2.84393
C          3.92694        3.05808       -2.18375
H          3.10244        2.94016       -1.49066
C          4.49009        4.31540       -2.42515
H          4.08283        5.18396       -1.91126
C          5.57001        4.46586       -3.30519
H          5.99783        5.45017       -3.48239
C          6.10206        3.34133       -3.95088
H          6.94317        3.44450       -4.63294
C          5.55320        2.07828       -3.72163
H          5.96293        1.20308       -4.22699
C         -0.90536        0.05420       -4.37894
N         -1.25221        1.54348       -1.74389
C         -0.82756        2.81678       -1.78358
H          0.24676        2.95827       -1.71490
O         -1.87198       -1.03571       -1.74690
N         -4.12794       -0.63203       -1.84593
H         -4.83499        0.09675       -1.80914
C         -1.72540        3.87796       -1.92266
H         -1.35559        4.89916       -1.95293
O          0.00000        0.00000        0.00000
C         -3.09059        3.59366       -2.03243
H         -3.81545        4.39494       -2.15422
C         -3.51798        2.26256       -1.99900
H         -4.57622        2.04115       -2.11361
C         -2.56891        1.24475       -1.84449
C         -2.83962       -0.23125       -1.80660
C         -4.64925       -1.95459       -1.88763
C         -3.88057       -3.06436       -2.27891
H         -2.84192       -2.93713       -2.55942
C         -4.49086       -4.32215       -2.32163
H         -3.90298       -5.18382       -2.63187
C         -5.84131       -4.48199       -1.98350
H         -6.30119       -5.46707       -2.02151
C         -6.59933       -3.36613       -1.60309
H         -7.64981       -3.47669       -1.34309
C         -6.00743       -2.10283       -1.55547
H         -6.59440       -1.23399       -1.25564
C          1.29351        2.07004        0.86295
H          0.74942        1.19933        0.49997
H          2.11717        1.74508        1.49691
H          1.68649        2.63134        0.01653
H          0.62094        2.70443        1.43839
