57
BANQUF Fe oxo CH4, charge 0 mult 3 bond 7 53
S          0.77691       -4.03701       -3.32982
N          0.99058       -1.62956       -1.86412
C          0.87522       -2.64275       -2.49548
Fe         0.00000       -0.00000       -1.64213
S          2.27282        3.37211       -3.37573
N          1.56936        1.09068       -1.86298
C          1.84480        2.05853       -2.51776
O          0.00000        0.00000        0.00000
C         -2.47106        0.52883       -3.38796
H         -3.37929        0.72222       -3.95836
N         -1.68969       -1.04995       -1.72128
C         -2.13367       -2.15754       -1.10480
N         -2.69021       -0.64382       -2.56306
C         -3.43707       -2.45804       -1.57741
H         -4.05549       -3.29181       -1.27040
C         -3.77192       -1.48886       -2.50762
C         -1.30969       -2.88946       -0.09344
H         -0.56507       -2.21558        0.34127
H         -0.78795       -3.73099       -0.56946
H         -1.95987       -3.28734        0.69584
C         -4.99975       -1.28729       -3.34114
H         -5.48711       -0.32265       -3.13457
H         -5.72265       -2.07787       -3.11661
H         -4.77799       -1.33609       -4.41758
N         -0.15598        0.02308       -3.77345
C          0.66897       -0.16225       -4.81676
N         -1.38322        0.30295       -4.30810
C         -0.05690        0.00815       -6.02606
H          0.33867       -0.07643       -7.03023
C         -1.36391        0.30217       -5.68272
C          2.11407       -0.51749       -4.65857
H          2.43761       -0.38004       -3.62523
H          2.72477        0.11157       -5.31794
H          2.26795       -1.56925       -4.93672
C         -2.57874        0.57980       -6.51341
H         -3.37817       -0.15543       -6.33611
H         -2.31143        0.52696       -7.57346
H         -2.98855        1.58318       -6.32377
N         -1.11417        1.64806       -1.71957
C         -1.07395        2.83564       -1.09340
N         -2.20027        1.68290       -2.55260
C         -2.15278        3.63554       -1.55028
H         -2.38415        4.64405       -1.23213
C         -2.85450        2.88885       -2.48118
C         -0.01864        3.17030       -0.08761
H          0.40084        2.25225        0.33496
H         -0.45038        3.78680        0.71082
H          0.78993        3.73998       -0.56591
C         -4.07014        3.20026       -3.29857
H         -3.85834        3.17731       -4.37790
H         -4.42231        4.20703       -3.05275
H         -4.89489        2.50075       -3.09588
C          2.38761       -0.50750        0.86295
H          1.38332       -0.29403        0.49997
H          2.43933       -0.30026        1.93080
H          2.62280       -1.55577        0.68481
H          3.10499        0.12005        0.33622
