39
BANSEQ Fe oxo CH4, charge 0 mult 3 bond 16 35
Fe        -0.00000        0.00000       -1.63712
S          3.13485        2.46093       -3.53506
N          1.00382        1.61340       -1.88186
C          1.91155        1.95322       -2.59170
N          0.06677       -0.23210       -3.74924
C         -0.16706        0.56542       -4.79425
H         -0.42688        1.60041       -4.61773
N          0.36286       -1.45320       -4.27200
C         -0.02104       -0.14848       -6.00601
H         -0.14704        0.23185       -7.01048
C          0.31720       -1.44005       -5.64206
H          0.52638       -2.33010       -6.22149
C          0.64643       -2.51623       -3.32883
H          0.88086       -3.43029       -3.87486
S         -3.95106        0.61825       -3.51937
N         -1.65956        0.91355       -1.89083
O          0.00000        0.00000        0.00000
C         -2.62316        0.76989       -2.59333
N         -0.97556       -1.73137       -1.71560
N          1.70003       -1.03821       -1.72595
C         -2.10658       -2.16621       -1.15419
C          2.91622       -0.84931       -1.20754
H         -2.64907       -1.50607       -0.49124
H          3.07968       -0.00717       -0.54908
N         -0.51437       -2.75660       -2.48731
N          1.78814       -2.15547       -2.50451
C         -2.38794       -3.48552       -1.57398
C          3.80635       -1.84789       -1.66267
H         -3.23135       -4.09925       -1.28843
H          4.85323       -1.95686       -1.41420
C         -1.36084       -3.83276       -2.43424
C          3.06227       -2.65979       -2.50047
H         -1.15675       -4.73354       -2.99853
H          3.31708       -3.53951       -3.07734
C         -0.59052        2.36844        0.86295
H         -0.34213        1.37222        0.49997
H          0.27329        3.02186        0.74976
H         -1.42490        2.76684        0.28762
H         -0.86833        2.31287        1.91444
