64
BAPCOL Fe oxo CH4, charge 2 mult 4 bond 3 60
Fe         0.00000       -0.00000       -1.64884
Cl        -0.47489       -2.16023       -1.79686
Cl         2.18864       -0.35331       -1.95266
O          0.00000        0.00000        0.00000
N          0.33115        2.06886       -1.59120
N          2.86890        3.50295        1.92625
N         -1.93360        0.55330       -1.77996
N          3.18044        0.99228        1.77078
N         -0.08755        0.33360       -3.68861
C          1.42521        2.37646       -0.59924
C          1.67775        3.86885       -0.31092
C          2.97119        4.04026        0.50673
C          2.14868        4.42905        2.86376
C          4.22459        3.04929        2.44528
C          4.36190        1.58038        2.04847
C          5.57938        0.89878        2.02191
C          5.55422       -0.46642        1.70169
C          4.33010       -1.08472        1.41707
C          3.16086       -0.31837        1.45693
C         -0.96368        2.65103       -1.10499
C         -2.14061        1.88619       -1.63290
C         -3.39420        2.45662       -1.85135
C         -4.46687        1.62898       -2.20593
C         -4.24650        0.25382       -2.32700
C         -2.96311       -0.25362       -2.11630
C          0.70362        2.51435       -2.97675
C          0.12148        1.62342       -4.04608
C         -0.06275        2.05960       -5.35879
C         -0.44355        1.12887       -6.33389
C         -0.62194       -0.20807       -5.96277
C         -0.44599       -0.56979       -4.62603
H          2.33436        1.91607       -0.99570
H          1.15468        1.82254        0.30635
H          0.82961        4.34417        0.20103
H          1.83825        4.42452       -1.24547
H          3.25443        5.09525        0.58757
H          3.79030        3.49020        0.03009
H          1.18162        4.69463        2.42872
H          2.75389        5.32802        3.01313
H          1.99726        3.90993        3.81386
H          5.00800        3.69211        2.03106
H          4.21394        3.16624        3.53565
H          6.51451        1.40703        2.24820
H          6.48031       -1.03617        1.67263
H          4.27920       -2.13965        1.16104
H          2.18646       -0.74340        1.22796
H         -0.95601        2.54988       -0.01112
H         -1.02227        3.71697       -1.35955
H         -3.52741        3.52927       -1.73166
H         -5.45405        2.05151       -2.37814
H         -5.04910       -0.43140       -2.58647
H         -2.73775       -1.31123       -2.20855
H          0.41569        3.56301       -3.12830
H          1.79765        2.44243       -3.04009
H          0.10554        3.10308       -5.61566
H         -0.58877        1.44337       -7.36485
H         -0.89913       -0.96671       -6.68980
H         -0.58172       -1.58919       -4.27703
H          2.38925        2.54684        1.87499
C         -0.99282       -2.22992        0.86295
H         -0.57522       -1.29196        0.49997
H         -0.33178       -3.05123        0.59022
H         -1.09164       -2.18800        1.94664
H         -1.97266       -2.38848        0.41496
