50
BAPKIM Co oxo CH4, charge 1 mult 5 bond 18 46
Co        -0.00000        0.00000       -1.70946
O         -1.27887        2.34626       -0.63138
O          2.96977        0.25009       -2.93477
O          1.09548       -2.84196       -2.37739
O         -3.05399        0.46096       -1.77453
N         -0.21934        2.02444       -1.55928
N          1.91008        0.83442       -2.25093
N         -0.03338       -2.00780       -2.17888
N         -2.03041       -0.42664       -1.98538
N         -0.19444        0.23567       -4.04890
C          1.00023        4.01817       -0.67703
C          0.86404        2.75458       -1.47014
C          2.00776        2.13928       -2.17477
C          3.18843        2.90304       -2.69790
C         -1.34233       -3.92122       -3.06386
C         -1.17676       -2.52702       -2.53698
C         -2.34782       -1.62853       -2.37750
C         -3.75158       -2.10315       -2.62081
O          0.00000        0.00000        0.00000
C          0.46611       -0.55425       -4.92208
C          0.40215       -0.37588       -6.30592
C         -0.38096        0.66815       -6.81300
C         -1.07199        1.48910       -5.91357
C         -0.95095        1.23786       -4.54465
H          0.06644        4.23135       -0.15171
H          1.23900        4.85941       -1.34283
H          1.82028        3.92795        0.04834
H          3.21846        2.83108       -3.79437
H          4.12108        2.46449       -2.32067
H          3.14157        3.95814       -2.41572
H         -0.44697       -4.51389       -2.86239
H         -1.50664       -3.89296       -4.15139
H         -2.21694       -4.40290       -2.61094
H         -4.44794       -1.26399       -2.55236
H         -4.03835       -2.85734       -1.87419
H         -3.84057       -2.56503       -3.61285
H          1.05609       -1.35937       -4.48839
H          0.95475       -1.04048       -6.96587
H         -0.45324        0.83637       -7.88555
H         -1.69755        2.30773       -6.26147
H         -1.47238        1.84422       -3.80806
H         -1.06924        1.64818        0.06426
H          1.62543       -2.66406       -1.56783
H          2.78919       -0.71062       -2.84506
H         -2.57655        1.26077       -1.40240
C          1.75587       -1.69563        0.86295
H          1.01731       -0.98240        0.49997
H          2.32042       -1.24932        1.68027
H          1.25048       -2.59248        1.21812
H          2.43528       -1.95831        0.05344
