78
BARKUC Mn oxo CH4, charge 2 mult 3 bond 71 74
C          3.90236       -0.25503       -2.93262
C          4.68245       -0.07513       -4.07926
H          5.76096       -0.13255       -3.96849
C          4.16824        0.17426       -5.37744
C          2.77129        0.25449       -5.51502
H          2.32671        0.43069       -6.49201
C          1.92170        0.10263       -4.40685
C          2.48341       -0.15963       -3.11453
C          0.49569        0.10575       -4.61433
H          0.15147        0.15526       -5.65403
C          5.12763        0.33123       -6.55372
C          6.09252        1.51521       -6.26151
H          6.79860        1.61765       -7.09494
H          6.67682        1.35308       -5.34648
H          5.54066        2.45891       -6.15972
C          5.95406       -0.97909       -6.69622
H          6.53863       -1.19614       -5.79279
H          6.65679       -0.87292       -7.53221
H          5.30093       -1.83724       -6.90122
C          4.39088        0.60365       -7.88029
H          3.72107       -0.22370       -8.15405
H          5.12632        0.70880       -8.68646
H          3.80942        1.53584       -7.84201
C          4.51466       -0.50467       -1.54936
C          6.05775       -0.53732       -1.61167
H          6.44852       -0.71300       -0.60241
H          6.47625        0.41485       -1.96554
H          6.42704       -1.34838       -2.25413
C          4.02629       -1.86857       -0.98875
H          4.52418       -2.06028       -0.02987
H          4.28355       -2.68817       -1.67315
H          2.94466       -1.87099       -0.81190
C          4.09806        0.64066       -0.58415
H          3.01398        0.66339       -0.41836
H          4.42499        1.61553       -0.97214
H          4.58294        0.48776        0.38830
C         -1.81155       -0.10711       -3.98261
H         -2.10036       -1.16380       -3.90174
H         -2.04147        0.23594       -5.00037
C         -2.54365        0.74339       -2.94932
H         -3.62726        0.57291       -2.95769
H         -2.34905        1.80223       -3.14979
C         -2.66008       -0.73216       -0.91045
H         -3.73944       -0.72862       -1.10816
H         -2.49878       -0.62297        0.16953
C         -1.99672       -2.00928       -1.36722
C         -2.63100       -3.25151       -1.39503
H         -3.68489       -3.33141       -1.13898
C         -1.88423       -4.38522       -1.74346
H         -2.35631       -5.36476       -1.76392
C         -0.52867       -4.24227       -2.06393
H          0.08228       -5.09943       -2.33379
C          0.04166       -2.96942       -2.03427
H          1.08529       -2.79125       -2.27341
C         -2.08220        1.69994       -0.72763
H         -1.90284        1.40348        0.31326
H         -3.07822        2.15437       -0.81003
C         -0.98790        2.63430       -1.18216
C         -1.06274        4.02397       -1.09828
H         -1.96795        4.49834       -0.72658
C          0.04531        4.78840       -1.48815
H          0.01119        5.87352       -1.42403
C          1.19063        4.13846       -1.96089
H          2.07161        4.69573       -2.26766
C          1.19606        2.74479       -2.03466
H          2.06169        2.19432       -2.38814
N         -0.38781        0.01341       -3.66360
N         -0.68212       -1.88284       -1.69000
N         -2.00146        0.45217       -1.57084
N          0.12848        2.01263       -1.65412
O          1.69447       -0.34840       -2.06647
O          0.00000        0.00000        0.00000
Mn        -0.00000       -0.00000       -1.61452
C          0.17027       -2.43500        0.86295
H          0.09865       -1.41078        0.49997
H          1.21420       -2.68115        1.05147
H         -0.39838       -2.53344        1.78645
H         -0.23339       -3.11464        0.11391
