56
BAWSOH Fe oxo CH4, charge 1 mult 3 bond 26 52
Fe         0.00000        0.00000       -1.66418
Cl        -0.03604        0.01478       -4.01674
P          1.16545        1.97518       -1.88338
P          2.08176       -0.99405       -1.79515
C          2.74323        1.57148       -2.76811
C          3.37253        0.32170       -2.12831
C          0.51408        3.42518       -2.80041
C          1.67955        2.62896       -0.24616
C          2.36030       -2.26673       -3.08876
C          2.67324       -1.74769       -0.22788
H          3.43286        2.42696       -2.73824
H          2.47348        1.37789       -3.81458
H          4.17020       -0.09102       -2.76056
H          3.82453        0.57580       -1.15903
H         -0.30619        3.89689       -2.24579
H          0.15125        3.09300       -3.78023
H          1.30827        4.17085       -2.94178
H          0.79229        2.94978        0.31274
H          2.37223        3.47563       -0.34187
H          2.15059        1.82546        0.33184
H          2.07280       -1.85414       -4.06261
H          1.73962       -3.14941       -2.88986
H          3.41377       -2.57666       -3.10749
H          2.43465       -1.06582        0.59714
H          3.75655       -1.92487       -0.26434
H          2.16989       -2.70118       -0.03836
O          0.00000        0.00000        0.00000
P         -1.14811       -1.99118       -1.57471
P         -2.07898        1.01108       -1.66991
C         -2.76814       -1.55055       -0.78579
C         -0.51332       -3.32983       -0.48873
C         -1.58710       -2.82124       -3.14930
C         -3.36229       -0.33322       -1.51451
C         -2.32454        2.05377       -0.17819
C         -2.70895        2.00832       -3.07587
H         -3.45792       -2.40611       -0.79956
H         -2.54642       -1.30513        0.26240
H          0.35035       -3.82769       -0.94599
H         -0.21245       -2.89638        0.47234
H         -1.29276       -4.08449       -0.31703
H         -0.67474       -3.13623       -3.66921
H         -2.22574       -3.69619       -2.96697
H         -2.09964       -2.11247       -3.80934
H         -4.25170        0.05277       -0.99727
H         -3.66976       -0.60887       -2.53360
H         -2.01632        1.48305        0.70542
H         -1.69122        2.94811       -0.24140
H         -3.37047        2.37202       -0.07575
H         -2.50722        1.47598       -4.01277
H         -3.79017        2.16750       -2.96322
H         -2.21501        2.98411       -3.11868
C          2.36844        0.59052        0.86295
H          1.37222        0.34213        0.49997
H          2.43842        0.35198        1.92319
H          3.10986        0.01421        0.31151
H          2.55328        1.65376        0.71712
