66
BAYZEH Fe oxo CH4, charge 1 mult 3 bond 11 62
Fe         0.00000        0.00000       -1.64568
S          5.15197       -0.27111       -2.58483
S          3.95331       -1.81563       -4.81567
S          1.02831       -3.64359       -5.44748
S         -1.91038       -3.29432       -5.32697
S         -3.70469        2.20246       -2.96458
N          1.45299        1.34609       -1.65679
N          0.17071        0.01380       -3.74696
N          1.22828       -1.55787       -1.64502
N         -1.51257       -1.25829       -1.67553
N         -1.21267        1.47596       -1.85807
O          0.00000        0.00000        0.00000
C          2.57875        0.22373       -3.50121
C          3.74297       -0.49504       -3.65071
C          2.50967        1.31436       -2.50719
C          3.48183        2.33033       -2.46921
C          3.37197        3.36317       -1.53708
C          2.27536        3.37519       -0.66714
C          1.33012        2.35722       -0.76508
C          1.39215        0.02681       -4.35412
C          1.49985       -0.04782       -5.75375
C          0.34691       -0.11905       -6.53779
C         -0.89985       -0.08687       -5.90424
C         -0.94091       -0.01793       -4.51320
C          6.01286       -1.69549       -3.13561
C          5.46720       -2.40010       -4.14749
C         -0.27191       -2.75394       -3.14678
C         -0.36827       -3.21592       -4.44347
C          1.00982       -2.65462       -2.42745
C          1.95170       -3.69913       -2.45020
C          3.09846       -3.62780       -1.65887
C          3.26998       -2.52194       -0.81781
C          2.30814       -1.51590       -0.83304
C         -1.49200       -2.41704       -2.38656
C         -2.59390       -3.29004       -2.34209
C         -3.72094       -2.95413       -1.59071
C         -3.71635       -1.76159       -0.85902
C         -2.58659       -0.94991       -0.91085
C          0.13975       -3.75300       -6.95527
C         -1.19832       -3.59622       -6.89843
C         -2.27536        1.77407       -2.33714
H          4.29088        2.31718       -3.19590
H          4.11642        4.15583       -1.50722
H          2.13992        4.16338        0.06842
H          0.45069        2.30706       -0.13214
H          2.48181        0.01154       -6.21797
H          0.42196       -0.15875       -7.62212
H         -1.82919       -0.10655       -6.46588
H         -1.88743        0.00359       -3.98225
H          6.96353       -1.92323       -2.66156
H          5.91584       -3.27588       -4.60794
H          1.74377       -4.58921       -3.03944
H          3.82037       -4.44104       -1.66501
H          4.12436       -2.43695       -0.15252
H          2.37377       -0.64015       -0.19547
H         -2.53810       -4.24412       -2.86108
H         -4.57467       -3.62730       -1.55483
H         -4.56231       -1.46249       -0.24685
H         -2.50458       -0.02758       -0.34736
H          0.70237       -3.98409       -7.85540
H         -1.87128       -3.67913       -7.74733
C         -1.69563        1.75587        0.86295
H         -0.98240        1.01731        0.49997
H         -1.56723        2.68611        0.31151
H         -2.70884        1.38433        0.71713
H         -1.52403        1.93574        1.92319
