81
BAZZAG Fe oxo CH4, charge 1 mult 4 bond 7 77
Fe        -0.00000        0.00000       -1.65635
O         -0.95902        1.62135       -1.73535
O         -1.61013       -0.90174       -1.86177
N          0.21646        0.21366       -3.64908
N          1.83761        0.84935       -1.64244
H          1.73171        1.73392       -1.13745
N          1.03533       -1.62046       -1.80489
O          0.00000        0.00000        0.00000
C         -1.97099        1.71100       -2.57038
C         -3.11463        2.45139       -2.12313
C         -4.22520        2.53587       -2.95745
H         -5.10531        3.06999       -2.59716
C         -4.26897        1.93861       -4.24164
C         -3.13195        1.26324       -4.69392
H         -3.13830        0.80364       -5.68035
C         -1.97550        1.14270       -3.89494
C         -0.74234        0.61642       -4.45474
C         -0.56211        0.56304       -5.92732
C         -0.15320       -0.65436       -6.51023
H         -0.00346       -1.52409       -5.87144
C          0.00402       -0.74951       -7.89558
H          0.29880       -1.69607       -8.34488
C         -0.22626        0.37229       -8.70550
H         -0.09786        0.29915       -9.78375
C         -0.62910        1.58611       -8.13025
H         -0.80663        2.45579       -8.75977
C         -0.80972        1.68149       -6.74663
H         -1.12882        2.61884       -6.29470
C          1.62767        0.18492       -4.04054
H          1.78638        0.54596       -5.06350
H          2.02391       -0.83474       -3.96916
C          2.32545        1.12194       -3.03571
H          3.41857        1.02397       -3.08019
H          2.05178        2.15598       -3.26917
C          2.66537       -0.08131       -0.81629
H          2.32441        0.05352        0.21291
H          3.73091        0.17655       -0.89104
C          2.41580       -1.52343       -1.27684
H          3.11992       -1.82617       -2.06380
H          2.55327       -2.21257       -0.43501
C          0.66444       -2.65994       -2.52094
C          1.65565       -3.75841       -2.74918
C          2.37189       -3.82286       -3.95850
H          2.17464       -3.09606       -4.74624
C          3.32614       -4.82932       -4.15216
H          3.87793       -4.87722       -5.08909
C          3.56408       -5.77420       -3.14512
H          4.30378       -6.55735       -3.29845
C          2.84522       -5.71467       -1.94321
H          3.02178       -6.45331       -1.16384
C          1.89428       -4.70777       -1.74088
H          1.32811       -4.66253       -0.81174
C         -0.66789       -2.79043       -3.07498
C         -0.95765       -3.87731       -3.94109
H         -0.14619       -4.53504       -4.24354
C         -2.24578       -4.13110       -4.39938
C         -3.30069       -3.31172       -3.91667
H         -4.32097       -3.52633       -4.23741
C         -3.09271       -2.25861       -3.03758
C         -1.74970       -1.94498       -2.64802
C         -3.08470        3.06273       -0.74737
H         -2.87554        2.29522        0.00978
H         -4.03885        3.54847       -0.51463
H         -2.28174        3.80862       -0.66793
C         -5.51885        2.02393       -5.08432
H         -6.34597        1.47017       -4.61575
H         -5.35527        1.60586       -6.08445
H         -5.85174        3.06523       -5.19536
C         -4.21860       -1.43140       -2.47307
H         -4.27877       -1.56216       -1.38333
H         -5.17709       -1.72740       -2.91458
H         -4.05514       -0.36288       -2.65310
C         -2.53503       -5.26672       -5.35229
H         -1.62797       -5.84044       -5.57592
H         -2.94439       -4.89136       -6.30172
H         -3.28028       -5.95616       -4.93105
C          0.08519        2.43946        0.86295
H          0.04936        1.41336        0.49997
H          1.12218        2.73375        1.01772
H         -0.37405        3.10030        0.12925
H         -0.45674        2.51045        1.80485
