58
BEBPEE Mn oxo CH4, charge 1 mult 4 bond 9 54
Mn         0.00000       -0.00000       -1.66581
Cl        -0.06095       -4.17922       -7.62639
Cl         4.45392        5.36960       -0.32547
S         -3.88276        1.02271       -3.41321
N         -0.27103        1.98163       -1.75409
N          0.00989        0.37128       -3.80135
N          0.45804       -1.94565       -1.83047
N          2.02888        0.08997       -1.56843
N         -1.85963       -0.28363       -1.95560
O          0.00000        0.00000        0.00000
C         -0.29210        2.76227       -0.65985
C         -0.51055        4.14105       -0.75527
C         -0.73237        4.71268       -2.01367
C         -0.72837        3.89274       -3.14826
C         -0.48392        2.52474       -2.98941
C         -0.40262        1.57083       -4.08839
C         -0.00209       -0.66117       -4.76978
C          1.12359       -1.49731       -4.87677
C          1.11594       -2.56653       -5.77057
C         -0.03600       -2.81217       -6.53421
C         -1.16570       -1.99001       -6.43084
C         -1.14589       -0.90483       -5.55078
C         -0.41849       -2.93541       -2.06394
C         -0.00484       -4.27146       -2.15287
C          1.34744       -4.58526       -1.98183
C          2.25920       -3.55245       -1.72872
C          1.78331       -2.23909       -1.66481
C          2.61580       -1.06421       -1.46486
C          2.69786        1.31331       -1.28979
C          3.15151        1.57614        0.01199
C          3.70026        2.82732        0.30932
C          3.78938        3.79479       -0.69982
C          3.34754        3.53080       -2.00569
C          2.78727        2.28782       -2.29689
C         -2.74772        0.26731       -2.55842
H          4.04616        3.05277        1.31440
H         -2.03063       -0.28227       -5.42835
H          2.00888       -1.28174       -4.28389
H         -2.05136       -2.20227       -7.02352
H         -0.90918        4.29771       -4.14094
H         -0.67019        1.87219       -5.10385
H          1.98770       -3.20585       -5.88063
H          3.68269       -1.15001       -1.24929
H          3.02784        0.82477        0.78836
H         -1.45482       -2.62849       -2.17084
H         -0.74246       -5.04539       -2.34713
H          1.68859       -5.61608       -2.04051
H          3.31852       -3.75363       -1.58721
H         -0.13835        2.23420        0.27793
H         -0.51666        4.74567        0.14751
H         -0.91408        5.78043       -2.11106
H          3.44278        4.29068       -2.77668
H          2.43623        2.05919       -3.30008
C         -2.22992       -0.99282        0.86295
H         -1.29196       -0.57522        0.49997
H         -2.65832       -1.64069        0.09962
H         -2.04419       -1.57073        1.76707
H         -2.92521       -0.18466        1.08513
