86
BEFNIM Fe oxo CH4, charge 1 mult 3 bond 48 82
Fe         0.00000       -0.00000       -1.65018
Cl        -2.70309        8.97409       -3.60312
S         -0.29508        2.04055       -5.59827
N          0.97928        1.73982       -1.76090
N         -1.53198        1.21622       -1.77536
N         -2.87836        1.07498       -1.78901
N         -2.34924        3.20366       -2.19231
N         -5.78632        1.77921       -1.66093
N         -0.00440        0.00049       -3.66425
C          2.30852        1.89282       -1.64386
H          2.87273        0.98181       -1.46793
C          2.92056        3.14410       -1.76627
H          3.99962        3.22259       -1.66329
C          2.13070        4.27039       -2.01494
H          2.58112        5.25484       -2.11804
C          0.74672        4.12074       -2.12748
H          0.10250        4.97243       -2.31579
C          0.19939        2.84015       -1.99095
C         -1.20004        2.48009       -2.01620
C         -3.39093        2.28856       -2.04653
C         -4.78323        2.61527       -2.15810
C         -5.41290        3.72072       -2.75387
H         -4.91583        4.53943       -3.25550
C         -6.80353        3.54593       -2.61484
H         -7.58040        4.21227       -2.96802
C         -7.00143        2.34852       -1.93661
H         -7.91361        1.85702       -1.62187
C         -5.62074        0.51280       -0.94615
H         -4.87851        0.62079       -0.14969
H         -5.29696       -0.27716       -1.63313
H         -6.58825        0.24687       -0.51095
C         -2.43561        4.59999       -2.52669
C         -2.78238        5.52441       -1.53469
H         -2.98845        5.18811       -0.52144
C         -2.86758        6.87889       -1.86840
H         -3.13621        7.61831       -1.11919
C         -2.60090        7.27650       -3.18661
C         -2.25283        6.34771       -4.17780
H         -2.05172        6.68048       -5.19236
C         -2.17262        4.99221       -3.84481
H         -1.90268        4.24405       -4.58820
C         -0.13069        0.85874       -4.49521
Cl         2.74655       -9.08479       -3.04198
N         -0.98317       -1.74700       -1.74570
N          1.53758       -1.21345       -1.78270
N          2.88099       -1.06824       -1.83910
N          2.35450       -3.21860       -2.10527
N          5.75432       -1.62890       -2.41732
O          0.00000        0.00000        0.00000
C         -2.31522       -1.89445       -1.68557
H         -2.88379       -0.97634       -1.56313
C         -2.92506       -3.14896       -1.80167
H         -4.00802       -3.22328       -1.74942
C         -2.12754       -4.28032       -1.98980
H         -2.57455       -5.26678       -2.09010
C         -0.73830       -4.13428       -2.04865
H         -0.09078       -4.99221       -2.19331
C         -0.19484       -2.85116       -1.91641
C          1.20472       -2.48935       -1.93527
C          3.39537       -2.29098       -2.04611
C          4.78486       -2.61151       -2.19522
C          5.44612       -3.85129       -2.15068
H          4.98427       -4.81325       -1.97778
C          6.81940       -3.61066       -2.34463
H          7.61183       -4.34813       -2.36398
C          6.97658       -2.23872       -2.50887
H          7.86520       -1.64671       -2.68919
C          5.55092       -0.18513       -2.55396
H          4.75842        0.01994       -3.27982
H          5.27815        0.25631       -1.58900
H          6.49107        0.25014       -2.90453
C          2.44576       -4.63547       -2.33221
C          2.55092       -5.11201       -3.64418
H          2.56348       -4.41438       -4.47813
C          2.64496       -6.48896       -3.86475
H          2.72891       -6.88319       -4.87362
C          2.63061       -7.36130       -2.76695
C          2.52514       -6.88302       -1.45267
H          2.51926       -7.57806       -0.61761
C          2.43399       -5.50528       -1.23431
H          2.36062       -5.10754       -0.22454
C          2.19391        1.07004        0.86295
H          1.27110        0.61996        0.49997
H          2.42237        0.68070        1.85398
H          3.00820        0.82842        0.18143
H          2.07399        2.15109        0.91641
