54
BEGXOB Fe oxo CH4, charge 1 mult 3 bond 45 50
Fe        -0.00000       -0.00000       -1.64317
Se        -1.61270       -3.82614       -3.43213
N          0.09397        1.99488       -1.70647
N          1.96122        0.14298       -1.76331
N          0.10131       -1.91158       -1.91423
C         -0.89377        2.89308       -1.66389
H         -1.90358        2.49856       -1.59892
C         -0.63981        4.28038       -1.69057
H         -1.47705        4.97215       -1.65156
C          0.66810        4.74322       -1.75838
H          0.87958        5.81071       -1.77475
C          1.73439        3.81070       -1.79830
C          3.12980        4.15547       -1.85637
H          3.40440        5.20820       -1.87770
C          4.10371        3.18689       -1.87644
H          5.15435        3.46783       -1.91327
C          3.76571        1.78927       -1.84247
C          4.69907        0.72140       -1.84564
H          5.76594        0.93494       -1.87658
C          4.23990       -0.58926       -1.80048
H          4.93464       -1.42489       -1.79299
C          2.85366       -0.85211       -1.75830
H          2.43619       -1.85494       -1.71970
C          2.39572        1.43465       -1.79526
C          1.38306        2.43826       -1.77016
C         -0.60330       -2.68481       -2.50900
N         -0.22809        0.10270       -3.73261
C          0.68014        0.18609       -4.70968
H          1.71462        0.30736       -4.39961
C          0.32863        0.11164       -6.07223
H          1.10756        0.18283       -6.82681
C         -1.00261       -0.06118       -6.43079
H         -1.29255       -0.13034       -7.47751
C         -1.98595       -0.16484       -5.41821
C         -3.38784       -0.37265       -5.65800
H         -3.73347       -0.44867       -6.68699
C         -4.27755       -0.48681       -4.61917
H         -5.33408       -0.65506       -4.81766
C         -3.84172       -0.40572       -3.25176
C         -4.68788       -0.54888       -2.12552
H         -5.75320       -0.72044       -2.26706
C         -4.14161       -0.48940       -0.84921
H         -4.76378       -0.61193        0.03325
C         -2.75796       -0.28477       -0.68456
N         -1.94456       -0.12940       -1.73802
O          0.00000        0.00000        0.00000
C         -2.46399       -0.19361       -2.99894
C         -1.53591       -0.07209       -4.07666
H         -2.27143       -0.25426        0.28697
C          0.59052       -2.36844        0.86295
H          0.34213       -1.37222        0.49997
H          1.61992       -2.37918        1.21812
H         -0.07827       -2.63421        1.68026
H          0.47830       -3.08817        0.05344
