82
BEHRAH Co oxo CH4, charge 2 mult 4 bond 42 78
Co        -0.00000       -0.00000       -1.63245
O          0.89176        1.82977       -1.90201
O         -1.78391        0.89570       -1.80905
O         -0.18253       -0.12385       -3.58150
N          0.16354        2.85841       -1.44211
N         -2.83555        0.08895       -1.61470
N          0.84732       -0.64877       -4.26794
C         -0.58812        3.58452       -2.31554
C         -1.32012        4.67147       -1.86420
C         -1.31438        5.03384       -0.50237
C         -0.54181        4.23663        0.36548
C          0.18885        3.15958       -0.11408
C         -2.07905        6.23284       -0.00343
C         -3.21355       -0.77396       -2.59888
C         -4.32570       -1.58135       -2.41826
C         -5.07559       -1.53000       -1.22611
C         -4.63357       -0.63326       -0.23164
C         -3.51700        0.16503       -0.43735
C         -6.31103       -2.37165       -1.03648
C          1.82227        0.18279       -4.72462
C          2.86050       -0.32698       -5.48857
C          2.92581       -1.70212       -5.79518
C          1.90326       -2.52158       -5.27752
C          0.87443       -1.98495       -4.51608
C          4.02100       -2.26085       -6.66588
H         -0.55849        3.23269       -3.33948
H         -1.90432        5.23675       -2.58650
H         -0.50029        4.45674        1.42974
H          0.79551        2.49517        0.48920
H         -2.57628       -0.75786       -3.47524
H         -4.61018       -2.25616       -3.22220
H         -5.16746       -0.54428        0.71177
H         -3.11646        0.88174        0.27036
H          1.69335        1.22059       -4.43934
H          3.62073        0.35868       -5.85580
H          1.89803       -3.59088       -5.47593
H          0.05532       -2.53935       -4.07345
H         -6.50608       -2.56618        0.02424
H         -7.18830       -1.84682       -1.44369
H         -6.22727       -3.32872       -1.56442
O         -0.71733       -1.97823       -1.74865
O          1.87249       -0.78768       -1.76016
O          0.00000        0.00000        0.00000
N         -0.34065       -2.73867       -0.71762
N          2.72788       -0.23415       -0.88304
C         -1.07417       -2.73761        0.43192
C          0.78046       -3.50831       -0.82697
C          2.76512       -0.69543        0.39845
C          3.53857        0.78199       -1.28698
C         -0.70488       -3.54530        1.49758
H         -1.93503       -2.08110        0.42125
C          1.16863       -4.33002        0.22180
H          1.31021       -3.40324       -1.76495
C          3.65573       -0.14532        1.30869
H          2.06550       -1.49102        0.61774
C          4.44153        1.34651       -0.39935
H          3.41008        1.08586       -2.31689
C          0.42925       -4.37742        1.42085
H         -1.31659       -3.52415        2.39656
H          2.05982       -4.94089        0.09568
C          4.52857        0.89431        0.93256
H          3.66615       -0.53781        2.32279
H          5.08160        2.15038       -0.75525
C          0.81727       -5.29350        2.55311
C          5.52637        1.47796        1.89913
H          5.71574        2.53669        1.68721
H          6.48707        0.94825        1.81345
H          5.18560        1.37889        2.93593
H          0.34295       -6.27745        2.42049
H          1.90121       -5.45417        2.58544
H          0.48834       -4.89678        3.52039
H         -2.99477        6.39290       -0.58452
H         -2.34420        6.12769        1.05469
H         -1.46383        7.13972       -0.10299
H          4.96157       -1.71577       -6.52427
H          4.19204       -3.32409       -6.46391
H          3.74157       -2.16466       -7.72586
C         -1.75587        1.69563        0.86295
H         -1.01731        0.98240        0.49997
H         -1.68370        2.61742        0.28761
H         -2.75365        1.27426        0.74976
H         -1.56884        1.90842        1.91445
