102
BEMXAU Mn oxo CH4, charge 1 mult 4 bond 1 98
Mn         0.00000        0.00000       -1.67608
O          0.00000        0.00000        0.00000
N         -0.96133        1.78003       -1.72570
C         -1.70194        2.17433       -2.78947
H         -1.77608        1.46456       -3.60673
C         -2.30502        3.42774       -2.81065
H         -2.90128        3.72167       -3.67099
C         -2.12546        4.29652       -1.72613
H         -2.58655        5.28070       -1.74875
C         -1.35823        3.89693       -0.61967
C         -0.80801        2.60789       -0.66997
H         -0.22969        2.17945        0.14413
C         -1.09254        4.77290        0.60945
C          0.43757        4.98430        0.74847
H          0.64869        5.60450        1.62984
H          0.84448        5.49349       -0.13571
H          0.96951        4.03085        0.87137
C         -1.77613        6.14934        0.48764
H         -1.55777        6.74600        1.38236
H         -2.86824        6.05551        0.40935
H         -1.40908        6.70988       -0.38345
C         -1.63406        4.05290        1.87104
H         -1.43942        4.66595        2.76112
H         -1.15187        3.07764        2.02121
H         -2.71783        3.89213        1.79496
N          1.77753        0.98329       -1.70143
C          2.16168        1.79389       -2.71741
H          1.41949        1.98942       -3.48313
C          3.44120        2.32962       -2.78506
H          3.68869        2.96594       -3.63100
C          4.39669        2.03725       -1.79019
C          3.96152        1.22138       -0.73041
H          4.62551        0.96184        0.08878
C          2.66066        0.72412       -0.70983
H          2.27358        0.10708        0.09661
C          5.81617        2.59528       -1.89359
C          5.74163        4.14484       -1.90533
H          5.14917        4.51655       -2.75152
H          6.75339        4.56206       -1.99334
H          5.29231        4.52361       -0.97766
C          6.70628        2.14535       -0.71845
H          7.71245        2.56493       -0.84259
H          6.80506        1.05143       -0.67947
H          6.31674        2.49747        0.24686
C          6.44718        2.09690       -3.22091
H          5.86457        2.41782       -4.09406
H          6.51352        1.00087       -3.23704
H          7.46126        2.50538       -3.32226
N          0.02659       -0.02760       -3.69026
C          0.50272        0.01455       -4.79365
S          1.17763        0.06689       -6.26530
N          1.02129       -1.75031       -1.67520
C          0.78305       -2.65432       -0.69516
H          0.01232       -2.38063        0.01794
C          1.52585       -3.82737       -0.61341
H          1.30987       -4.54634        0.17317
C          2.56171       -4.05205       -1.53054
H          3.15810       -4.95747       -1.45151
C          2.83394       -3.10823       -2.53358
C          2.00564       -1.97716       -2.56958
H          2.13122       -1.21181       -3.32685
C          3.96693       -3.23103       -3.55765
C          3.36013       -3.29402       -4.98305
H          4.16636       -3.38000       -5.72399
H          2.70288       -4.16750       -5.08926
H          2.77900       -2.39415       -5.22265
C          4.81577       -4.49476       -3.31513
H          5.62371       -4.53799       -4.05640
H          5.27792       -4.49178       -2.31768
H          4.21980       -5.41161       -3.42308
C          4.88257       -1.98344       -3.43824
H          5.70784       -2.06170       -4.15860
H          4.33810       -1.05443       -3.65466
H          5.31075       -1.90532       -2.42910
N         -1.77603       -0.97186       -1.70588
C         -2.58329       -0.89544       -0.61770
H         -2.17187       -0.33064        0.21454
C         -3.82433       -1.51687       -0.57993
H         -4.42927       -1.41163        0.31758
C         -4.28572       -2.27261       -1.67847
C         -3.42301       -2.34712       -2.78621
H         -3.69357       -2.91167       -3.67354
C         -2.19436       -1.69000       -2.77314
H         -1.51493       -1.71191       -3.61932
C         -5.65006       -2.96043       -1.62918
C         -5.66023       -3.95998       -0.44229
H         -5.48855       -3.45501        0.51737
H         -6.63671       -4.45929       -0.39045
H         -4.88692       -4.72907       -0.56984
C         -5.96234       -3.72765       -2.92934
H         -6.94861       -4.20069       -2.84422
H         -5.98846       -3.05940       -3.80120
H         -5.22798       -4.52293       -3.11790
C         -6.74208       -1.88114       -1.40582
H         -6.58587       -1.33303       -0.46738
H         -6.75308       -1.15590       -2.23027
H         -7.72870       -2.36026       -1.35593
C         -1.22048       -2.11393        0.86295
H         -0.70711       -1.22475        0.49997
H         -0.70711       -3.00308        0.49994
H         -1.22049       -2.11395        1.95194
H         -2.24719       -2.11392        0.49994
