77
BENVIZ Fe oxo CH4, charge 3 mult 2 bond 21 73
Fe         0.00000       -0.00000       -1.64488
O          1.51393       -1.21576       -1.65783
O         -1.23257       -1.53088       -1.72462
O          0.00957        0.00730       -3.60395
N          1.27159       -2.49763       -3.55549
N          2.21920       -3.38132       -1.61136
N         -2.39406       -0.80509        0.12620
N         -2.28720       -3.07795       -0.41963
N         -0.72208        1.02355       -5.50847
N         -2.15341       -0.36212       -4.28239
C          1.65509       -2.35630       -2.28205
C          2.65442       -3.29091       -0.20961
C          1.42963       -3.71860       -4.35700
C         -1.96447       -1.80644       -0.68912
C         -1.78761       -4.23106       -1.18548
C         -3.10642       -0.97849        1.39695
C         -0.95734        0.22489       -4.45182
C         -3.29306       -0.25143       -5.20310
C          0.58146        1.65821       -5.77196
O         -1.49231        1.24481       -1.74231
O          1.22601        1.47311       -1.76113
O          0.00000        0.00000        0.00000
C         -1.48571        2.43529       -1.18752
C          2.09438        1.68750       -0.83005
N         -0.94195        2.63574        0.02680
N         -2.08534        3.44023       -1.84393
N          2.38913        0.71564        0.08696
N          2.67147        2.89500       -0.73333
C         -0.96002        3.90912        0.76185
C         -2.74862        3.28142       -3.14895
C          3.21647        0.91034        1.28194
C          2.37616        4.00409       -1.65598
H          2.57273        4.94386       -1.13292
H          3.01220        3.94243       -2.54758
H          1.32656        3.94245       -1.95155
H         -0.77701       -4.00828       -1.53322
H         -1.77626       -5.09936       -0.52145
H         -2.44022       -4.43730       -2.04284
H         -2.60159       -1.73696        2.00482
H         -3.08534       -0.02574        1.93125
H         -4.15603       -1.26286        1.22927
H          1.18449        1.04127       -6.44917
H          0.40410        2.63388       -6.23309
H          1.10291        1.78121       -4.82061
H          2.92704        1.83370        1.79419
H          3.04882        0.06335        1.95207
H          4.28568        0.94461        1.02044
H         -1.40973        1.04254       -6.25875
H         -2.20505       -0.97166       -3.46852
H          1.88713       -2.77048        0.37105
H          2.76808       -4.30743        0.17530
H          3.61552       -2.76742       -0.12362
H          0.98550       -4.57747       -3.83782
H          0.90392       -3.57496       -5.30337
H          2.48749       -3.92009       -4.57349
H         -1.98698        4.21024        1.00809
H         -0.41007        3.76995        1.69502
H         -0.47090        4.70185        0.18065
H         -3.67761        2.70778       -3.04851
H         -2.97818        4.28032       -3.52651
H         -2.07010        2.77622       -3.84066
H         -3.05987       -0.69565       -6.18021
H         -4.13610       -0.79391       -4.77012
H         -3.58507        0.79869       -5.33361
H         -2.37195        0.11321       -0.32547
H         -3.02965       -3.25341        0.25579
H          2.58531       -4.15821       -2.15796
H          2.24654       -0.23896       -0.26840
H          3.51106        2.97856       -0.16218
H          0.92860       -1.63416       -3.97894
H         -0.52706        1.80094        0.44629
H         -2.25324        4.30719       -1.33848
C          0.42387       -2.40387        0.86295
H          0.24558       -1.39274        0.49997
H          1.46874       -2.50681        1.15203
H         -0.21216       -2.59734        1.72547
H          0.19331       -3.11858        0.07432
