82
BERJUG Mn oxo CH4, charge 1 mult 4 bond 68 78
C         -3.64108       -4.04240       -6.53495
C         -0.91582       -0.64205       -6.48456
H         -1.15369       -0.86544       -7.52166
C         -0.04297        0.38019       -6.13562
H          0.43373        0.99410       -6.89557
C          0.23792        0.62089       -4.77499
H          0.92959        1.40255       -4.47129
C         -1.72916       -2.16842       -0.68659
H         -1.33827       -1.80207        0.25975
C         -2.59552       -3.26986       -0.80991
H         -2.91571       -3.79753        0.08430
C         -3.02351       -3.67269       -2.06904
H         -3.69065       -4.52698       -2.16908
C         -2.89896       -3.25638       -4.58015
C         -2.39497       -2.51936       -5.66719
C         -1.49932       -1.41873       -5.45955
C         -1.16688       -1.10545       -4.11638
C         -1.70259       -1.86912       -3.01755
C         -2.57937       -2.97543       -3.21854
C         -4.35259       -4.87979       -7.49461
C         -5.22335       -5.91378       -7.09178
H         -5.40439       -6.11735       -6.03648
C         -5.87686       -6.68884       -8.04932
H         -6.55020       -7.48748       -7.73861
C         -5.67279       -6.44279       -9.41823
C         -4.80545       -5.40830       -9.82269
H         -4.66455       -5.23818      -10.88806
C         -4.15088       -4.63347       -8.87292
H         -3.47627       -3.83261       -9.16461
Cl         1.67590       -1.49888       -1.98860
Mn         0.00000       -0.00000       -1.66278
N         -3.69421       -4.22247       -5.15882
H         -4.19553       -4.95959       -4.67541
N         -2.85758       -3.00995       -6.85856
N         -0.30929       -0.09687       -3.79005
N         -1.31037       -1.49438       -1.76721
C         -6.36911       -7.26758      -10.43973
H         -7.03392       -8.06306      -10.03241
O         -6.23893       -7.10417      -11.64621
C         -0.59890        7.21817       -1.98333
C         -3.12892        3.67383       -1.78095
H         -3.77869        4.54513       -1.80278
C         -3.63445        2.38311       -1.69439
H         -4.70484        2.20151       -1.64416
C         -2.75138        1.28644       -1.66169
H         -3.11589        0.26758       -1.57871
C          2.54823        1.61585       -1.78016
H          3.02462        0.64077       -1.73212
C          3.27942        2.81874       -1.82655
H          4.36507        2.77528       -1.81561
C          2.61379        4.03551       -1.88149
H          3.17671        4.96631       -1.91693
C          0.34408        5.19375       -1.91845
C         -1.06054        5.11980       -1.89972
C         -1.72993        3.85387       -1.83132
C         -0.90523        2.70034       -1.79867
C          0.52836        2.79502       -1.82832
C          1.19867        4.05162       -1.88059
C         -0.72406        8.67082       -2.03366
C          0.39691        9.51971       -2.14530
H          1.40629        9.11338       -2.20767
C          0.22370       10.90281       -2.18721
H          1.08940       11.55909       -2.27428
C         -1.06655       11.45667       -2.11999
C         -2.18791       10.61016       -2.01078
H         -3.17560       11.06370       -1.96043
C         -2.02123        9.23128       -1.96780
H         -2.87333        8.56186       -1.88199
O          0.00000        0.00000        0.00000
N          0.61567        6.54381       -1.97379
H          1.53396        6.97411       -1.97141
N         -1.62639        6.36563       -1.94051
N         -1.42306        1.44013       -1.71734
N          1.20759        1.61159       -1.79045
C         -1.25300       12.93064       -2.16550
H         -0.31432       13.52393       -2.25155
O         -2.34774       13.47649       -2.11436
C          2.07004       -1.29351        0.86295
H          1.19933       -0.74942        0.49997
H          2.40248       -0.85967        1.80486
H          1.80641       -2.33871        1.01772
H          2.87196       -1.22622        0.12924
