66
BEXNEZ Co oxo CH4, charge 3 mult 3 bond 59 62
C         -0.45765        1.04705       -4.37203
C         -0.45754        1.05633       -5.77019
H         -0.83553        1.91401       -6.31332
C          0.03389       -0.04630       -6.46743
H          0.04182       -0.05677       -7.55528
C          0.51520       -1.13573       -5.74249
H          0.90149       -2.00221       -6.26549
C          0.49553       -1.10230       -4.34495
C         -0.98227        2.23057       -3.56863
C         -1.48096        3.35897       -4.49336
H         -0.67234        3.72365       -5.13505
H         -1.85710        4.20205       -3.90471
H         -2.29081        3.00445       -5.13920
C         -2.11950        1.75149       -2.64492
C         -3.41685        2.27666       -2.71413
H         -3.68034        2.96893       -3.50581
C         -4.37087        1.93479       -1.74928
H         -5.37709        2.34472       -1.80608
C         -3.98832        1.11063       -0.68830
H         -4.66101        0.87432        0.13241
C         -2.69430        0.59506       -0.68137
H         -2.34098        0.00152        0.15097
C          0.13838        2.74800       -2.64451
C          0.62104        4.06164       -2.71258
H          0.27995        4.72474       -3.49952
C          1.52277        4.53466       -1.75288
H          1.89483        5.55556       -1.80843
C          1.88641        3.69259       -0.69952
H          2.52179        4.02782        0.11645
C          1.39788        2.38816       -0.69307
H          1.61023        1.72426        0.13344
C          1.00896       -2.27331       -3.51504
C          1.51735       -3.41787       -4.41420
H          2.33883       -3.07870       -5.05377
H          0.71704       -3.79132       -5.06132
H          1.88156       -4.25223       -3.80588
C          2.13506       -1.77717       -2.58866
C          3.42990       -2.31219       -2.62668
H          3.69456       -3.03819       -3.38695
C          4.38042       -1.93419       -1.67226
H          5.38428       -2.35244       -1.70442
C          3.99858       -1.05659       -0.65509
H          4.66993       -0.78153        0.15455
C          2.70620       -0.53741       -0.67675
H          2.35795        0.10257        0.12138
C         -0.12606       -2.77093       -2.60000
C         -0.60551       -4.08675       -2.64946
H         -0.23833       -4.76893       -3.40773
C         -1.54090       -4.53540       -1.71102
H         -1.90968       -5.55816       -1.75189
C         -1.94837       -3.66313       -0.69933
H         -2.62014       -3.97348        0.09707
C         -1.45755       -2.35938       -0.70859
H         -1.71202       -1.67209        0.08518
N          0.01330       -0.02131       -3.67407
N         -1.80939        0.85682       -1.67352
N          0.59831        1.91344       -1.67849
N          1.82063       -0.84508       -1.65489
N         -0.61395       -1.91227       -1.66966
O          0.00000        0.00000        0.00000
Co        -0.00000        0.00000       -1.65404
C          0.91440       -2.26321        0.86295
H          0.52978       -1.31125        0.49997
H          1.87722       -2.10506        1.34656
H          0.21353       -2.68826        1.57990
H          1.03706       -2.94827        0.02536
