70
BIZBES Mn oxo CH4, charge 0 mult 3 bond 4 66
Mn        -0.00000        0.00000       -1.63222
Cl         0.35114       -0.31778       -4.02676
O         -0.81055        1.56351       -2.08092
O         -1.59642       -0.97284       -1.75352
O          0.00000        0.00000        0.00000
N          1.80833        0.82791       -1.67217
N          1.08982       -1.65911       -1.58077
C         -0.34085        2.74126       -2.44226
C         -1.27050        3.73995       -2.88377
C         -0.75330        5.00186       -3.18880
H         -1.43525        5.78256       -3.51507
C          0.62014        5.31190       -3.11309
H          0.96503        6.31123       -3.36979
C          1.52030        4.33224       -2.72929
H          2.58914        4.54000       -2.68626
C          1.06163        3.03773       -2.38748
C          2.04129        2.06926       -2.01019
H          3.07976        2.40824       -2.03590
C          2.83628       -0.07044       -1.31689
C          4.15867        0.28465       -1.00566
H          4.46638        1.32758       -1.00530
C          5.07870       -0.70651       -0.66042
H          6.10050       -0.42795       -0.41137
C          4.68109       -2.05253       -0.60414
H          5.39543       -2.81962       -0.31193
C          3.36382       -2.41345       -0.89115
H          3.05403       -3.45152       -0.79898
C          2.43746       -1.42545       -1.26558
C          0.61711       -2.84799       -1.87783
H          1.34067       -3.66226       -1.96433
C         -0.74178       -3.19610       -2.08899
C         -1.02502       -4.56354       -2.35949
H         -0.19117       -5.25581       -2.47593
C         -2.32911       -4.99837       -2.45876
H         -2.55672       -6.04132       -2.66798
C         -3.38049       -4.07275       -2.25986
H         -4.40049       -4.44491       -2.31646
C         -3.17661       -2.72008       -1.99368
C         -1.81777       -2.24929       -1.94757
C         -2.75437        3.40166       -3.06794
C         -3.57322        4.63602       -3.50223
H         -3.53908        5.43902       -2.75138
H         -4.62329        4.33812       -3.62359
H         -3.23315        5.04217       -4.46557
C         -2.86288        2.33708       -4.19328
H         -3.91223        2.03490       -4.31780
H         -2.26503        1.44767       -3.97148
H         -2.50972        2.75612       -5.14569
C         -3.37765        2.87516       -1.74841
H         -3.28160        3.62639       -0.95130
H         -2.90448        1.94877       -1.41448
H         -4.44836        2.68262       -1.90626
C         -4.34513       -1.75073       -1.76700
C         -4.33932       -0.67173       -2.87677
H         -4.46846       -1.13336       -3.86569
H         -3.39848       -0.11755       -2.87506
H         -5.16615        0.03569       -2.71560
C         -5.70808       -2.47299       -1.81175
H         -5.78668       -3.25097       -1.03857
H         -5.89860       -2.93327       -2.79194
H         -6.50520       -1.73952       -1.62927
C         -4.21349       -1.08220       -0.37278
H         -4.25301       -1.84035        0.42222
H         -5.04946       -0.38383       -0.22030
H         -3.27430       -0.52882       -0.27942
C          1.36496        2.02364        0.86295
H          0.79082        1.17245        0.49997
H          2.15500        1.67274        1.52524
H          1.80661        2.55034        0.01829
H          0.70741        2.69903        1.40828
