58
BOCYOK Fe oxo CH4, charge 1 mult 3 bond 29 54
S         -3.73504       -1.38862       -3.48514
Fe        -0.00000       -0.00000       -1.64380
O         -0.67217       -3.32523       -4.99732
N         -1.91920        0.07751       -1.89735
N          0.09503       -0.02414       -3.72796
N         -0.29553       -0.62844       -5.83821
N         -0.20206       -1.95335       -1.67332
N         -0.79625       -4.01996       -2.23528
C         -2.69230       -0.55840       -2.56570
C          0.26467        1.06715       -4.53414
H          0.53397        2.03471       -4.13734
C          0.01866        0.70512       -5.84520
H          0.03449        1.27768       -6.76256
C         -0.24214       -1.05207       -4.53224
C         -0.49131       -2.44256       -4.14066
C         -0.48928       -2.76891       -2.71278
C         -0.70241       -3.97406       -0.86875
H         -0.91535       -4.84039       -0.25765
C         -0.33125       -2.68820       -0.52656
H         -0.17712       -2.23192        0.44083
C         -0.69894       -1.40556       -7.02465
H         -0.70844       -0.71842       -7.87469
H         -1.69585       -1.82176       -6.86016
H          0.00828       -2.21975       -7.19525
C         -1.24378       -5.19339       -3.00778
H         -2.13791       -4.92928       -3.57781
H         -1.47036       -5.98518       -2.28916
H         -0.45761       -5.51100       -3.69568
O          3.41932        3.16333       -1.01533
O          0.00000        0.00000        0.00000
N          1.97719       -0.09059       -1.69384
N          4.12730        0.44674       -1.49990
N          0.05409        1.97325       -1.63366
N          0.71090        4.05734       -1.22117
C          2.72188       -1.22196       -1.87124
H          2.26615       -2.18270       -2.05659
C          4.06041       -0.89805       -1.75231
H          4.95196       -1.50619       -1.82266
C          2.83734        0.92351       -1.47150
C          2.51880        2.33737       -1.25320
C          1.12276        2.75314       -1.36471
C         -0.64693        4.07869       -1.40575
H         -1.21279        4.99780       -1.33644
C         -1.04811        2.77880       -1.65903
H         -2.03184        2.36565       -1.82898
C          5.37990        1.19957       -1.29654
H          6.20451        0.49055       -1.40638
H          5.38582        1.64199       -0.29817
H          5.45898        1.99508       -2.04072
C          1.53700        5.23923       -0.91042
H          2.04044        5.09398        0.04795
H          0.86531        6.09999       -0.86233
H          2.28804        5.38299       -1.69046
C         -2.40387        0.42387        0.86295
H         -1.39274        0.24558        0.49997
H         -3.04185        0.71740        0.03064
H         -2.79318       -0.48717        1.31502
H         -2.38770        1.21966        1.60616
