25
BODQES Co oxo CH4, charge 0 mult 3 bond 19 21
Co         0.00000       -0.00000       -1.64876
C         -1.68156        1.77684       -3.21836
H         -2.05388        2.78761       -3.43004
H         -2.50308        1.05814       -3.30993
N         -1.17238        1.67318       -1.82020
H         -1.93880        1.60788       -1.14370
H         -0.57978        2.47193       -1.56935
N          2.36592        1.94487       -2.03151
C          1.53430        1.13775       -1.82329
N          1.72128       -2.47353       -2.05632
C          1.05941       -1.52475       -1.84500
C         -0.52945        1.40341       -4.14807
H         -0.85348        1.37785       -5.19629
H          0.30212        2.10839       -4.04041
N         -0.02403        0.07133       -3.70643
H          0.92645       -0.10945       -4.04424
H         -0.62763       -0.69566       -4.02137
N         -2.62596       -1.56356       -2.07758
C         -1.59526       -1.04702       -1.83810
O          0.00000        0.00000        0.00000
C          1.36496       -2.02364        0.86295
H          0.79082       -1.17245        0.49997
H          2.15500       -1.67274        1.52524
H          0.70741       -2.69903        1.40828
H          1.80661       -2.55034        0.01829
