38
BOMXAC10 Fe oxo CH4, charge 0 mult 4 bond 5 34
Fe         0.00000       -0.00000       -1.65711
Cl         0.22631        0.16489       -4.01785
Cl        -2.16995       -0.43067       -1.82681
O         -0.34302        1.99648       -1.78478
O          0.59633       -1.72106       -1.78249
O          0.00000        0.00000        0.00000
N          1.91803        2.01319       -2.00980
N          1.82452        0.68434       -1.63013
C          0.64023        4.03106       -2.54944
C          1.74540        4.89792       -2.43291
C          1.64440        6.20965       -2.90088
C          0.44740        6.65501       -3.48256
C         -0.65386        5.79288       -3.59229
C         -0.56505        4.48063       -3.12448
C          0.69332        2.63744       -2.09884
C          2.87584        0.02643       -1.23136
C          2.81619       -1.35476       -0.85936
C          3.95600       -1.95637       -0.27232
C          3.95612       -3.30002        0.07690
C          2.80876       -4.08378       -0.17794
C          1.67966       -3.53194       -0.77064
C          1.65300       -2.15963       -1.12361
H          2.66123        2.26529       -2.66119
H          2.65938        4.55958       -1.94616
H          2.49048        6.88691       -2.80406
H          0.37307        7.67785       -3.84762
H         -1.57840        6.14302       -4.04634
H         -1.39763        3.78694       -3.20948
H          3.83559        0.54741       -1.18533
H          4.83573       -1.34021       -0.08757
H          4.83195       -3.74564        0.54236
H          2.80490       -5.13762        0.09507
H          0.79438       -4.12472       -0.98379
C         -2.41720       -0.33971        0.86295
H         -1.40046       -0.19682        0.49997
H         -3.07181       -0.57601        0.02535
H         -2.43487       -1.15921        1.57991
H         -2.76164        0.57318        1.34656
