50
BPYMNB Co oxo CH4, charge 1 mult 2 bond 27 46
Co         0.00000       -0.00000       -1.75200
N          1.50133        1.21134       -1.82153
C          1.92612        1.57917       -3.06315
C          2.95816        2.51314       -3.21106
C          3.53129        3.08080       -2.06955
C          3.05923        2.70815       -0.80563
C          2.03181        1.76641       -0.71621
N          0.21258        0.08205       -3.75389
C          1.18838        0.93940       -4.16327
C          1.41469        1.18175       -5.52434
C          0.62134        0.53105       -6.47222
C         -0.37915       -0.34712       -6.03934
C         -0.55122       -0.54249       -4.66743
N          1.04495       -1.64649       -1.68831
C          0.29357       -2.76816       -1.50043
C          0.90088       -4.02263       -1.36049
C          2.29327       -4.11874       -1.41309
C          3.04990       -2.95823       -1.61097
C          2.38659       -1.73715       -1.74232
N         -1.49393       -1.21862       -1.68122
C         -1.15302       -2.52121       -1.47535
C         -2.13577       -3.49534       -1.26690
C         -3.48102       -3.11366       -1.25866
C         -3.81077       -1.76920       -1.46072
C         -2.78563       -0.84187       -1.66590
C         -0.92494        2.65308       -2.24532
N         -1.16870        1.51795       -1.90305
O          0.00000        0.00000        0.00000
S         -0.67419        4.17013       -2.72408
H         -4.25716       -3.85599       -1.08823
H         -1.02111       -0.86754       -6.74499
H         -1.31876       -1.20217       -4.27324
H          3.46830        3.14288        0.10220
H          2.92407       -0.80530       -1.88204
H         -2.95431        0.22242       -1.80557
H          0.29328       -4.90990       -1.20821
H         -4.84341       -1.43092       -1.45042
H         -1.85728       -4.53224       -1.10203
H          3.29534        2.80714       -4.20072
H          4.32570        3.81677       -2.16940
H          2.77904       -5.08494       -1.29986
H          0.77816        0.71251       -7.53289
H          1.57540        1.42171        0.21025
H          4.13506       -2.98911       -1.65685
H          2.18880        1.87595       -5.83839
C         -1.81398        1.63332        0.86295
H         -1.05097        0.94630        0.49997
H         -1.79761        2.54304        0.26457
H         -2.79318        1.16360        0.78268
H         -1.61415        1.88032        1.90457
