64
BREACO Co oxo CH4, charge 2 mult 3 bond 2 60
Co         0.00000       -0.00000       -1.67043
Br         1.35573       -2.00052       -1.27525
O          0.00000        0.00000        0.00000
N         -1.70434       -0.94871       -1.80635
N          0.13489       -0.25077       -3.62924
N          1.56517        1.17813       -1.83455
N         -1.05523        1.65842       -1.83984
C         -2.02911       -1.32922       -3.24894
C         -1.24742       -0.38599       -4.18290
C          1.04789        0.79466       -4.22980
C          2.17039        0.96648       -3.19942
C          1.15896        2.62119       -1.51816
C         -0.28251        2.62132       -0.98276
C         -2.54860        1.38812       -1.58946
C         -2.68035       -0.05665       -1.08694
C         -1.69723       -2.81650       -3.48431
C         -2.48682       -3.78136       -2.58340
C          1.54696        0.40405       -5.63215
C          2.43218        1.48749       -6.27596
C          2.15457        3.27041       -0.54217
C          3.59149        3.35873       -1.08339
C         -3.21121        2.41583       -0.65735
C         -4.72577        2.16630       -0.51206
H         -1.60800       -1.82053       -1.26699
H          2.23140        0.85179       -1.12104
H         -0.96620        1.99609       -2.80569
H         -3.10750       -1.17174       -3.39169
H         -1.93371       -3.02561       -4.53657
H         -0.61709       -2.98611       -3.35618
H         -3.56827       -3.61244       -2.66745
H         -2.20246       -3.70849       -1.52231
H         -2.28244       -4.81435       -2.88479
H         -1.22678       -0.78531       -5.20407
H         -1.69304        0.61513       -4.22694
H          0.45310        1.71944       -4.30138
H          2.10033       -0.54492       -5.56021
H          0.67286        0.22270       -6.27318
H          3.37549        1.62384       -5.73210
H          2.82444        1.81046       -3.44461
H          2.77626        0.05440       -3.14050
H          1.18196        3.15038       -2.48231
H          1.78142        4.28036       -0.32108
H          2.13148        2.71262        0.40701
H          3.63163        3.92121       -2.02595
H          4.22712        3.87888       -0.35887
H          4.03915        2.36755       -1.24658
H         -0.32651        2.27033        0.05249
H         -0.71617        3.62622       -1.04537
H         -3.01160        1.46235       -2.58264
H         -2.73075        2.38199        0.33050
H         -4.93884        1.22326        0.00686
H         -5.17098        2.97410        0.07859
H         -5.22488        2.15171       -1.49003
H         -2.43047       -0.12259       -0.02154
H         -3.69949       -0.43304       -1.23736
H          0.61139       -1.16298       -3.71109
H          1.91106        2.45301       -6.32531
H          2.68426        1.19248       -7.30021
H         -3.05252        3.42070       -1.07232
C          1.36496       -2.02364        0.86295
H          0.79082       -1.17245        0.49997
H          2.15500       -1.67274        1.52524
H          0.70741       -2.69903        1.40828
H          1.80661       -2.55034        0.01829
