84
BUBGEM Mn oxo CH4, charge 2 mult 4 bond 2 80
Mn        -0.00000       -0.00000       -1.66256
N          1.12087       -1.65756       -1.74420
O          0.00000        0.00000        0.00000
N          0.09264       -0.14416       -3.75639
N          1.69423        1.00633       -1.94328
N         -1.19094        1.72012       -1.89150
C          0.79626        1.12031       -4.18453
H          1.13008        1.03938       -5.22612
C          1.97035        1.30691       -3.24440
C          1.42608       -2.13287       -2.97360
C          3.19461        1.86301       -3.60998
H          3.39088        2.10341       -4.65154
C          2.18534       -3.29618       -3.12718
H          2.42166       -3.66558       -4.12286
C          1.54905       -2.30164       -0.63117
H          1.24801       -1.83785        0.30495
C          2.63274       -3.97010       -1.98516
H          3.22464       -4.87738       -2.08409
C          2.31064       -3.46433       -0.71773
H          2.64146       -3.96091        0.19057
C          0.91906       -1.34177       -4.15988
H          1.77024       -0.99587       -4.76098
H          0.31693       -1.98886       -4.81083
C          3.84850        1.80328       -1.27665
H          4.56320        1.99134       -0.47985
C          2.60719        1.24122       -0.97428
H          2.29561        0.96499        0.02997
C          4.14779        2.11120       -2.61024
H          5.11180        2.54178       -2.87193
C         -1.55535        2.24508       -0.47618
H         -2.05293        1.40302        0.01227
H         -0.59315        2.40066        0.01883
C         -2.40430        3.48838       -0.47822
C         -3.81007        3.39625       -0.46356
H         -4.29049        2.41758       -0.43037
C         -1.80339        4.76293       -0.46847
H         -0.71657        4.84949       -0.44004
C         -3.98797        5.81500       -0.47574
H         -4.60042        6.71423       -0.47138
C         -2.58995        5.91977       -0.47106
H         -2.11486        6.89841       -0.45718
C         -4.59767        4.55263       -0.46575
H         -5.68229        4.46942       -0.44779
N         -1.55545       -1.21430       -1.93275
C         -2.89748       -2.31497       -3.59132
H         -3.19177       -2.41883       -4.63241
C         -1.93640       -1.37187       -3.23262
C         -3.07743       -2.92959       -1.25369
H         -3.51083       -3.52229       -0.45248
C         -2.10425       -1.97334       -0.95836
H         -1.73353       -1.77678        0.04464
C         -3.47315       -3.10708       -2.58578
H         -4.22286       -3.85237       -2.84208
C         -0.46895        2.79827       -2.63667
H          0.42835        3.07399       -2.07723
H         -1.10996        3.68711       -2.68425
C         -1.42151        2.06242       -4.82260
C         -0.11487        2.38325       -4.08355
C         -2.19020        0.95604       -4.08597
C         -2.45528        1.43730       -2.64083
H         -3.05153        2.35695       -2.68989
H         -3.04050        0.70046       -2.08540
C         -3.56142        0.74795       -4.75795
C         -4.67433       -0.01104       -6.70779
H         -5.45371       -0.48578       -6.10572
H         -4.40500       -0.61518       -7.57441
H         -4.98329        0.99486       -7.00329
C          0.57027        3.59221       -4.74980
C          1.68786        4.36750       -6.69005
H          0.85864        5.01838       -6.97849
H          2.15228        3.90425       -7.56079
H          2.41296        4.92121       -6.08746
O         -1.80246        2.61856       -5.83236
O          1.15584        3.24212       -5.90902
O         -3.43644        0.08639       -5.92229
O         -4.59823        1.16579       -4.27739
O          0.54105        4.70993       -4.26991
C         -1.33981       -0.34957       -4.17976
H         -1.38712       -0.69560       -5.21940
C          2.36844       -0.59052        0.86295
H          1.37222       -0.34213        0.49997
H          2.43842       -0.35198        1.92319
H          2.55328       -1.65376        0.71712
H          3.10986       -0.01421        0.31151
