61
BUJJAR Co oxo CH4, charge 2 mult 2 bond 3 57
Co        -0.00000       -0.00000       -1.73088
O          0.05878       -0.02118       -3.73939
O          0.77019       -1.77282       -1.78235
O          0.00000        0.00000        0.00000
N         -1.86394       -0.66045       -1.56305
N         -0.78152        1.77817       -1.76405
N          1.77415        0.96072       -1.63554
C          0.22683       -2.86243       -1.47878
C         -1.21560       -2.96153       -1.05666
C         -2.21637       -2.09712       -1.87080
C         -2.75299        0.41586       -2.09877
C         -2.24620        1.70448       -1.45664
C          0.06645        2.61313       -0.86059
C          1.49563        2.42443       -1.35705
C          2.83172        0.75785       -2.71610
C          2.21366        1.07961       -4.09826
C          0.97089        0.32527       -4.52886
C          1.05741       -4.10676       -1.52714
C         -3.63600       -2.40369       -1.34186
C         -2.12092       -2.37755       -3.37674
C          4.03499        1.69785       -2.46370
C          3.34035       -0.69384       -2.68864
C          0.80596        0.03026       -5.98910
H         -1.84600       -0.56761       -0.53022
H         -0.67175        2.10250       -2.73450
H          2.10600        0.53478       -0.75878
H         -1.24956       -2.66804        0.00818
H         -1.53058       -4.01062       -1.09797
H         -2.65524        0.44257       -3.18989
H         -3.80278        0.23459       -1.84009
H         -2.76237        2.59387       -1.83720
H         -2.35162        1.67012       -0.36617
H         -0.23278        3.66894       -0.90130
H         -0.07280        2.22487        0.15356
H          2.21942        2.82210       -0.63839
H          1.62403        2.97291       -2.29689
H          2.98743        0.93764       -4.86350
H          1.94510        2.14924       -4.17431
H          1.06892        0.90766       -6.59652
H         -0.20823       -0.30826       -6.21642
H          1.52501       -0.75864       -6.26575
H          0.97832       -4.63490       -0.56471
H          2.10355       -3.88765       -1.75213
H          0.64139       -4.78811       -2.28583
H         -4.40154       -1.87344       -1.91990
H         -3.73816       -2.13825       -0.28089
H         -3.83779       -3.47647       -1.44524
H         -2.33411       -3.43732       -3.56199
H         -1.12840       -2.13871       -3.77345
H         -2.86546       -1.79549       -3.93304
H          3.77765        2.76037       -2.53779
H          4.81082        1.49266       -3.21070
H          4.46804        1.50578       -1.47343
H          4.20850       -0.77388       -3.35347
H          2.58379       -1.41082       -3.01336
H          3.67036       -0.97187       -1.67914
C          1.97477       -1.43475        0.86295
H          1.14413       -0.83126        0.49997
H          2.38239       -0.98495        1.76708
H          1.62253       -2.44097        1.08512
H          2.75003       -1.48183        0.09962
