35
BUKFAR Co oxo CH4, charge 0 mult 4 bond 29 31
Co         0.00000       -0.00000       -1.63856
Cl        -0.15826       -0.06972       -3.96080
Cl         1.76541        1.52557       -1.75046
N         -1.67372        1.22810       -1.74457
C         -1.61483        2.56942       -1.74581
H         -0.60489        2.97535       -1.71427
C         -2.76671        3.35379       -1.79624
H         -2.69326        4.43757       -1.80387
C         -4.00579        2.70050       -1.82725
H         -4.93144        3.27256       -1.85128
C         -4.06850        1.30587       -1.82238
H         -5.03194        0.80556       -1.82435
C         -2.85912        0.58890       -1.79630
N         -2.80269       -0.82207       -1.80313
C         -3.92509       -1.68862       -2.14421
H         -3.67834       -2.25047       -3.05690
H         -4.81329       -1.08658       -2.33228
H         -4.12860       -2.38850       -1.32227
N         -1.56362       -1.34991       -1.75410
C         -1.26880       -2.61603       -1.83556
H         -2.00622       -3.41143       -1.93860
C          0.15370       -2.89586       -1.84826
N          1.02532       -1.81657       -1.78278
C          2.25028       -2.28530       -1.86549
H          3.15096       -1.68689       -1.85674
N          2.21607       -3.64981       -1.98306
H          3.02291       -4.25817       -2.07368
C          0.89361       -4.05819       -1.97438
H          0.61332       -5.09823       -2.06396
O          0.00000        0.00000        0.00000
C          2.11393        1.22048        0.86295
H          1.22475        0.70711        0.49997
H          2.41033        0.79883        1.82226
H          2.92366        1.09520        0.14562
H          1.89696        2.28076        0.98394
