53
BUKRAB Fe oxo CH4, charge 2 mult 3 bond 31 49
Fe        -0.00000        0.00000       -1.63548
O         -1.59802       -2.16753       -2.60790
O          2.30911       -1.65404       -1.09955
N         -1.64800       -1.03941       -1.75832
N          1.00055       -1.72035       -1.61770
N          0.00655       -0.00128       -3.71414
C         -0.87531       -3.23363       -1.97639
H         -0.89472       -4.04170       -2.71721
H         -1.40724       -3.58074       -1.07449
C          0.55330       -2.93720       -1.60111
C          1.38608       -4.10494       -1.15555
H          0.83686       -5.04397       -1.27875
H          1.66131       -3.98247       -0.09881
H          2.32041       -4.15171       -1.72855
C          3.16714       -0.85097       -1.91884
H          3.12424       -1.17632       -2.96980
H          4.16495       -1.06926       -1.52554
C         -2.80516       -0.75596       -1.25580
C         -4.04424       -1.57643       -1.39814
H         -4.78141       -1.00412       -1.98220
H         -3.86020       -2.53151       -1.89255
H         -4.48808       -1.73889       -0.40514
C         -0.10820       -0.07565       -4.87145
C         -0.26214       -0.17290       -6.31860
H         -0.79426       -1.09973       -6.56855
H          0.72310       -0.18074       -6.80176
H         -0.83940        0.68355       -6.68960
O          1.59495        2.42512       -1.46309
O         -2.47586        1.62218       -1.45865
N          1.68455        1.04260       -1.71972
N         -1.09117        1.67385       -1.70806
O          0.00000        0.00000        0.00000
C          0.72854        3.08566       -2.39932
H          0.95258        4.14546       -2.24394
H          0.99219        2.81508       -3.43300
C         -0.73716        2.84900       -2.12056
C         -1.71258        3.97586       -2.29618
H         -1.23439        4.82929       -2.78699
H         -2.58567        3.65436       -2.87603
H         -2.07952        4.29725       -1.30969
C         -2.84397        0.57823       -0.53231
H         -2.18708        0.58318        0.34634
H         -3.86646        0.83914       -0.24826
C          2.90982        0.63763       -1.81453
C          4.10109        1.54636       -1.80370
H          4.44190        1.66753       -0.76274
H          3.86400        2.53782       -2.19540
H          4.92492        1.09571       -2.37052
C          1.43475        1.97477        0.86295
H          0.83126        1.14413        0.49997
H          2.18968        1.60068        1.55292
H          1.92279        2.46391        0.02124
H          0.79529        2.69036        1.37766
