70
BUKVAF Fe oxo CH4, charge 0 mult 3 bond 13 66
Fe         0.00000        0.00000       -1.64404
O          1.69596       -0.92877       -1.76252
O         -0.80625       -1.75174       -1.77077
O          5.40107        0.72443       -2.74478
O         -4.80959       -2.63919       -2.55176
O         -0.75701        6.38173       -1.01188
H          0.18872        6.58395       -0.87717
O         -3.26690        5.49387       -1.03770
H         -2.83576        6.36187       -0.88063
N          0.78518        1.73019       -1.77548
N         -1.65961        0.92598       -1.76618
N          0.03173       -0.09949       -3.77373
N          0.06306       -0.47399       -7.96927
O          0.00000        0.00000        0.00000
C          2.84645       -0.42222       -1.99186
C          3.08611        0.98394       -2.19253
C          2.05840        1.95044       -2.04217
H          2.35027        2.99348       -2.17120
C         -0.16053        2.75397       -1.58291
C          0.13192        4.11746       -1.38807
H          1.16304        4.46513       -1.33954
C         -0.91161        5.02173       -1.22077
C         -2.25785        4.58889       -1.22997
C         -2.55223        3.23885       -1.40414
H         -3.59315        2.93028       -1.36071
C         -1.50784        2.31480       -1.58466
C         -2.82395        0.34277       -1.98014
H         -3.68317        1.00707       -2.07407
C         -3.07879       -1.04603       -2.10919
C         -2.03965       -2.03123       -1.95701
C          3.95586       -1.45052       -2.03390
H          4.76756       -1.18698       -1.34673
H          4.40906       -1.49073       -3.03171
H          3.52085       -2.41987       -1.76796
C          4.43167        1.47411       -2.55253
C          4.66063        2.98707       -2.71104
H          4.44145        3.53522       -1.78274
H          4.03866        3.41636       -3.51051
H          5.71445        3.12916       -2.96720
C         -2.31285       -3.51854       -2.00769
H         -1.36854       -4.03687       -1.80938
H         -2.71545       -3.80615       -2.98619
H         -3.07444       -3.80656       -1.27435
C         -4.47012       -1.45689       -2.39304
C         -5.56143       -0.38028       -2.50793
H         -5.35696        0.32996       -3.32265
H         -5.66938        0.19744       -1.57810
H         -6.50309       -0.89639       -2.71589
C         -0.32354        0.92685       -4.57612
H         -0.61794        1.84398       -4.07083
C         -0.32706        0.85743       -5.96131
H         -0.62591        1.73272       -6.53014
C          0.05874       -0.34985       -6.60401
C          0.43800       -1.42170       -5.75154
H          0.75263       -2.38016       -6.15300
C          0.40651       -1.25150       -4.37596
H          0.68686       -2.05569       -3.70073
C         -0.31326        0.66300       -8.80677
H         -1.33559        0.99872       -8.57881
H         -0.27766        0.35609       -9.85532
H          0.37393        1.51206       -8.66759
C          0.51118       -1.72079       -8.58754
H          1.55556       -1.94648       -8.32359
H          0.44138       -1.61974       -9.67369
H         -0.12016       -2.56607       -8.27638
C          0.75430       -2.32148        0.86295
H          0.43702       -1.34501        0.49997
H          1.75605       -2.24465        1.28307
H          0.06364       -2.66497        1.63166
H          0.76047       -3.03130        0.03709
