57
BUNLOM Mn oxo CH4, charge 1 mult 4 bond 2 53
Mn        -0.00000        0.00000       -1.66494
Cl        -2.21850       -0.19636       -2.09984
O          0.00000        0.00000        0.00000
C          0.29888       -2.72955       -0.59359
H          0.31777       -2.14077        0.32065
C          0.35731       -4.12178       -0.63317
H          0.44845       -4.68271        0.29300
C          0.28930       -4.76738       -1.87393
H          0.33498       -5.85250       -1.93581
C          0.15489       -4.00160       -3.03831
H          0.08828       -4.47222       -4.01638
C          0.09136       -2.61097       -2.93463
N          0.18295       -1.99772       -1.72548
C         -1.02871        2.82351       -2.10121
H         -1.90940        2.30380       -2.46697
C         -0.96222        4.21335       -1.99701
H         -1.81476        4.81251       -2.30497
C          0.20065        4.80382       -1.49171
H          0.27959        5.88476       -1.40052
C          1.26538        3.98242       -1.10056
H          2.18449        4.40378       -0.70031
C          1.13099        2.59974       -1.21794
N          0.00188        2.03371       -1.72459
C          2.16874        1.60517       -0.76390
H          3.18748        2.01264       -0.81332
H          1.93566        1.28681        0.25965
N          2.02137        0.39600       -1.62609
C          2.57240        0.58130       -3.00192
H          3.66876        0.51394       -2.99669
H          2.29281        1.59152       -3.32428
C          1.94721       -0.47272       -3.90235
H          2.29080       -0.37574       -4.94158
H          2.23053       -1.47203       -3.54680
N          0.45895       -0.36615       -3.81484
C         -0.14931       -1.69379       -4.10692
H          0.23357       -2.12221       -5.04386
H         -1.23241       -1.53932       -4.20644
C         -0.10099        0.71008       -4.71955
H          0.35710        1.65259       -4.39716
H         -1.16993        0.75524       -4.47998
C          0.13422        0.47961       -6.19444
C          1.27077        1.01580       -6.82858
H          1.95751        1.64718       -6.26200
C          1.51212        0.77671       -8.18700
H          2.39086        1.20429       -8.66613
C          0.61256        0.00072       -8.92959
H          0.79430       -0.18175       -9.98688
C         -0.53315       -0.52228       -8.31399
H         -1.24623       -1.10516       -8.89388
C         -0.77191       -0.28164       -6.95595
H         -1.67772       -0.66855       -6.48897
H          2.46826       -0.40449       -1.16594
C         -2.43946        0.08519        0.86295
H         -1.41336        0.04936        0.49997
H         -3.12205        0.14488        0.01652
H         -2.65257       -0.81446        1.43839
H         -2.56987        0.96098        1.49691
