90
BUQWAM Fe oxo CH4, charge 1 mult 3 bond 2 86
Fe        -0.00000       -0.00000       -1.70112
H          0.00000        0.00000       -3.31081
O          0.00000        0.00000        0.00000
P         -1.79229       -1.34947       -1.53796
P         -1.47445        1.55189       -2.31507
N         -3.60290       -0.08924       -3.17979
N         -3.60605        0.66415       -0.80946
C         -4.38744        0.36333       -2.01831
H         -5.10923       -0.42340       -1.76734
H         -4.93038        1.27031       -2.31111
C         -2.99253       -1.41534       -2.97100
H         -2.48371       -1.73416       -3.88793
H         -3.80532       -2.12564       -2.76096
C         -2.68413        0.95818       -3.64069
H         -3.28498        1.81884       -3.96966
H         -2.10243        0.59219       -4.49626
C         -2.94435       -0.53822       -0.28445
H         -3.72156       -1.25789        0.01056
H         -2.33537       -0.28201        0.59039
C         -2.74760        1.85072       -0.96596
H         -2.24252        2.06494       -0.01778
H         -3.39536        2.70035       -1.22628
C         -1.49246       -3.01355       -0.87485
C         -2.10240       -4.17217       -1.38812
H         -2.77365       -4.11522       -2.24264
C         -1.82516       -5.41767       -0.81194
H         -2.29282       -6.31371       -1.21581
C         -0.94846       -5.51240        0.27649
H         -0.74150       -6.48292        0.72404
C         -0.33835       -4.35851        0.79049
H          0.33833       -4.43165        1.64057
C         -0.60169       -3.11140        0.21610
H         -0.13395       -2.20312        0.59902
C         -0.89954        3.13770       -2.99556
C         -0.04413        3.08471       -4.11575
H          0.24712        2.11428       -4.52013
C          0.42247        4.26475       -4.70302
H          1.07331        4.21813       -5.57470
C          0.04747        5.50614       -4.16925
H          0.41270        6.42577       -4.62260
C         -0.79611        5.56346       -3.05248
H         -1.08142        6.52628       -2.63304
C         -1.27315        4.38539       -2.46584
H         -1.91360        4.44590       -1.58855
P          1.79229        1.34946       -1.53796
P          1.47445       -1.55190       -2.31507
N          3.60290        0.08924       -3.17979
N          3.60605       -0.66416       -0.80946
C          4.38744       -0.36333       -2.01831
H          5.10923        0.42339       -1.76734
H          4.93039       -1.27032       -2.31111
C          2.99254        1.41534       -2.97099
H          2.48372        1.73416       -3.88793
H          3.80533        2.12564       -2.76094
C          2.68413       -0.95818       -3.64069
H          3.28498       -1.81883       -3.96967
H          2.10242       -0.59218       -4.49626
C          2.94435        0.53822       -0.28445
H          3.72156        1.25788        0.01056
H          2.33538        0.28201        0.59039
C          2.74760       -1.85072       -0.96597
H          2.24253       -2.06495       -0.01778
H          3.39537       -2.70036       -1.22629
C          1.49245        3.01354       -0.87486
C          2.10241        4.17217       -1.38811
H          2.77372        4.11521       -2.24258
C          1.82511        5.41767       -0.81198
H          2.29278        6.31371       -1.21583
C          0.94833        5.51242        0.27639
H          0.74133        6.48294        0.72390
C          0.33820        4.35853        0.79037
H         -0.33855        4.43168        1.64040
C          0.60161        3.11141        0.21603
H          0.13384        2.20313        0.59893
C          0.89954       -3.13770       -2.99556
C          0.04375       -3.08469       -4.11547
H         -0.24777       -2.11425       -4.51964
C         -0.42289       -4.26473       -4.70271
H         -1.07403       -4.21810       -5.57417
C         -0.04755       -5.50613       -4.16921
H         -0.41282       -6.42576       -4.62254
C          0.79640       -5.56346       -3.05272
H          1.08197       -6.52629       -2.63347
C          1.27348       -4.38540       -2.46610
H          1.91422       -4.44592       -1.58902
C          1.81398       -1.63332        0.86295
H          1.05097       -0.94630        0.49997
H          2.33902       -1.18160        1.70331
H          1.34345       -2.56104        1.18520
H          2.52248       -1.84432        0.06331
