72
CABXIO Fe oxo CH4, charge 1 mult 3 bond 44 68
Fe         0.00000        0.00000       -1.69454
P          0.44735        2.24230       -1.70862
P         -2.19516        0.59852       -1.62432
O         -0.06839        0.48580      -10.47777
C          0.00276        0.02261       -3.64145
C          0.02435        0.05962       -4.88210
C          0.02075        0.13682       -6.30327
C         -0.61771        1.21788       -6.96751
C         -0.62777        1.30356       -8.35264
C          0.00124        0.30770       -9.12952
C          0.64047       -0.77381       -8.49308
C          0.64557       -0.85024       -7.09878
C          0.55329       -0.50076      -11.31510
C          1.19922        3.09259       -3.15284
C          1.44562        2.76028       -0.25572
C         -1.16819        3.15958       -1.51209
C         -2.20325        2.26565       -0.80975
C         -3.07729        0.85064       -3.21439
C         -3.37548       -0.35694       -0.58694
H         -1.10806        1.98916       -6.37588
H         -1.11607        2.12948       -8.86475
H          1.13043       -1.55213       -9.07187
H          1.14113       -1.68940       -6.61297
H          1.63379       -0.55626      -11.12109
H          0.09535       -1.48863      -11.16450
H          0.37673       -0.16183      -12.33815
H          2.27202        2.88586       -3.21769
H          0.72062        2.72027       -4.06629
H          1.05714        4.17873       -3.07095
H          1.46445        3.85196       -0.14070
H          1.01688        2.29015        0.63705
H          2.47674        2.40073       -0.36740
H         -1.00519        4.09912       -0.96618
H         -1.51490        3.42392       -2.52155
H         -3.20730        2.71208       -0.83262
H         -1.92279        2.09786        0.23952
H         -2.51052        1.55208       -3.83665
H         -3.12401       -0.09593       -3.76517
H         -4.09424        1.23223       -3.05168
H         -4.29942        0.21710       -0.43408
H         -3.63764       -1.30883       -1.06470
H         -2.90971       -0.55768        0.38508
P         -0.44414       -2.23265       -1.83037
P          2.17273       -0.60309       -1.94879
O          0.00000        0.00000        0.00000
C         -1.04589       -3.01688       -0.28088
C         -1.57992       -2.82266       -3.14885
C          1.15048       -3.15936       -2.15297
C          2.18621       -2.24009       -2.82030
C          2.99753       -0.92003       -0.33642
C          3.39042        0.38027       -2.91043
H         -2.09972       -2.77837       -0.10449
H         -0.46065       -2.61004        0.55264
H         -0.93449       -4.10871       -0.32239
H         -1.62496       -3.91984       -3.16576
H         -1.22427       -2.44594       -4.11470
H         -2.59231       -2.43430       -2.98090
H          0.95112       -4.05299       -2.75995
H          1.52258       -3.50495       -1.17799
H          3.19166       -2.68335       -2.80400
H          1.90812       -2.03439       -3.86218
H          2.36523       -1.58400        0.26436
H          3.08563        0.02260        0.21647
H          3.99437       -1.36316       -0.46232
H          4.30577       -0.20615       -3.06824
H          3.66005        1.29883       -2.37516
H          2.95295        0.63721       -3.88228
C          1.22048       -2.11393        0.86295
H          0.70711       -1.22475        0.49997
H          2.07608       -1.81755        1.46794
H          0.53601       -2.70671        1.46794
H          1.56270       -2.70669        0.01594
