74
CABXUA Fe oxo CH4, charge 1 mult 3 bond 44 70
Fe        -0.00000       -0.00000       -1.68930
F         -2.14656       -2.75990       -9.17106
C         -0.01263        0.00698       -3.64261
C         -1.23132       -3.13560       -2.11834
H         -1.05792       -4.03829       -2.71972
H         -1.60549       -3.46453       -1.13844
C         -0.06237       -0.01249       -4.88092
P          0.38776       -2.24826       -1.81247
C         -0.13007       -0.05168       -6.30372
F         -0.27864       -2.65904      -10.31123
C         -0.39797       -1.26516       -6.97625
H         -0.54600       -2.17764       -6.40423
C         -0.45942       -1.30196       -8.37131
F         -0.32872       -3.67213       -8.36039
C         -0.25756       -0.14181       -9.12873
H         -0.29092       -0.17931      -10.21362
C          0.00700        1.06389       -8.46678
C          0.07262        1.11638       -7.07280
H          0.29235        2.05759       -6.57583
C         -0.79912       -2.60152       -9.06048
F          0.71358        2.09120      -10.48611
C          0.17167        2.33398       -9.26664
P         -2.19491       -0.55540       -1.92356
F         -1.02830        2.94352       -9.46874
F          0.97143        3.22903       -8.62263
C         -2.24959       -2.19602       -2.78458
H         -3.26444       -2.61700       -2.75745
H         -1.97889       -2.00476       -3.83121
C          1.50297       -2.87372       -3.13195
H          1.51990       -3.97162       -3.14327
H          2.52523       -2.50989       -2.96956
H          1.15361       -2.49384       -4.09868
C         -2.99979       -0.83982       -0.29695
H         -3.08553        0.11323        0.23833
H         -2.35839       -1.49028        0.30905
H         -3.99724       -1.28673       -0.40324
C         -3.39395        0.45422       -2.88044
H         -2.95619        0.69748       -3.85565
H         -3.63763        1.38156       -2.34774
H         -4.32454       -0.10932       -3.03173
C          0.98333       -3.03026       -0.26090
H          0.84837       -4.11974       -0.29432
H          0.41380       -2.60766        0.57564
H          2.04359       -2.81405       -0.09533
O          0.00000        0.00000        0.00000
C          1.24690        3.13230       -1.52717
H          1.10817        4.07735       -0.98416
H          1.59717        3.38521       -2.53838
P         -0.39155        2.25626       -1.71130
P          2.21597        0.54622       -1.62980
C          2.26038        2.21591       -0.82279
H          3.27479        2.63824       -0.84903
H          1.97836        2.05950        0.22791
C         -1.36694        2.80590       -0.25513
H         -1.36505        3.89940       -0.15588
H         -2.40559        2.46414       -0.35036
H         -0.93690        2.34366        0.64122
C          3.09529        0.77290       -3.22511
H          3.16227       -0.18571       -3.75304
H          2.51855        1.45083       -3.86421
H          4.10621        1.17303       -3.06967
C          3.37397       -0.43187       -0.58983
H          2.90275       -0.62214        0.38168
H          3.62114       -1.38862       -1.06588
H          4.30761        0.12598       -0.43577
C         -1.13228        3.12123       -3.15275
H         -0.96827        4.20401       -3.06856
H         -0.66179        2.74387       -4.06813
H         -2.20892        2.93576       -3.21761
C         -1.22048       -2.11393        0.86295
H         -0.70711       -1.22475        0.49997
H         -0.70711       -3.00308        0.49994
H         -1.22049       -2.11395        1.95194
H         -2.24719       -2.11392        0.49994
