44
CAHGAW Mn oxo CH4, charge 1 mult 2 bond 31 40
C          2.77809        0.56535       -1.78460
H          3.02583        0.46116       -0.71902
H          3.56922        1.13438       -2.28470
C          2.62268       -0.82285       -2.43113
H          2.60415       -0.73105       -3.52531
H          3.44817       -1.47955       -2.13307
C          0.93778       -2.60648       -2.11231
C          1.81133       -3.75577       -2.52305
H          2.86792       -3.47831       -2.55143
H          1.51836       -4.09767       -3.52678
H          1.69089       -4.59991       -1.83253
C          1.23166        2.50281       -1.97329
C          2.25551        3.58728       -2.14755
H          3.27668        3.20326       -2.09187
H          2.13207        4.35044       -1.36737
H          2.11932        4.07892       -3.12106
C         -0.49691       -2.79952       -1.84875
C         -1.15040       -4.04003       -1.86511
H         -0.60283       -4.95934       -2.06546
C         -3.13988       -3.03375       -1.39314
H         -4.20609       -3.12298       -1.19195
C         -2.51629       -1.77487       -1.38535
H         -3.07343       -0.86793       -1.17618
C         -0.20518        2.81563       -1.94691
C         -0.74789        4.09473       -2.13565
H         -0.10237        4.95687       -2.29522
C         -2.35047        1.96707       -1.76795
H         -3.00516        1.11287       -1.63794
C         -2.86081        3.26176       -1.95222
H         -3.93538        3.43590       -1.94855
Cl        -0.33331        0.01404       -3.97571
O          0.00000        0.00000        0.00000
Mn        -0.00000        0.00000       -1.61303
N          1.31179       -1.36446       -2.02919
N         -1.20500       -1.65320       -1.61966
N         -1.03105        1.74195       -1.75862
N          1.46993        1.23191       -1.84970
N         -2.06934        4.32924       -2.13552
N         -2.46767       -4.16784       -1.63748
C         -2.32148        0.75430        0.86295
H         -1.34501        0.43702        0.49997
H         -2.85847        1.26238        0.06331
H         -2.88964       -0.11706        1.18520
H         -2.19281        1.43485        1.70331
