87
CAKLOQ Co oxo CH4, charge 0 mult 4 bond 52 83
Co        -0.00000        0.00000       -1.62871
S         -0.40051        1.18772       -4.49725
O          0.77549       -1.94146       -1.99627
N         -1.77193       -0.82641       -1.72135
N         -1.11680       -2.60219       -3.19604
H         -1.35384       -3.04328       -4.12488
O         -0.01198       -0.03537       -3.62104
C          0.27084       -2.45515       -3.04513
C          1.06275       -2.91076       -4.13823
S         -3.76256       -2.19592       -2.60170
S          3.29406       -2.12166       -5.25106
O          2.71367       -0.80571       -5.53421
O         -0.73580       -3.49672       -5.59520
N          2.48324       -2.76929       -3.94680
C         -2.90128       -0.25821       -1.15859
H         -2.78478        0.58945       -0.49190
O          4.73342       -2.25874       -5.01054
C         -2.03506       -1.86822       -2.50430
C         -4.08529       -0.83133       -1.52208
C          0.51772       -3.37178       -5.37314
C          1.45656       -3.71020       -6.48813
C          3.66348       -3.61026       -7.56324
H          4.68862       -3.24634       -7.55049
C          3.15427       -3.80817       -3.13137
H          4.21418       -3.55670       -3.04534
H          3.03707       -4.80647       -3.57760
H          2.68591       -3.78125       -2.14256
C         -0.20338        0.43038       -6.14095
H          0.86273        0.20813       -6.25683
H         -0.54544        1.13802       -6.90603
H         -0.77746       -0.50307       -6.17083
C          2.78845       -3.24238       -6.53586
C          1.00499       -4.53090       -7.53530
H         -0.02728       -4.87203       -7.50477
C         -5.47078       -0.43271       -1.10517
H         -6.10590       -0.20584       -1.97307
H         -5.40817        0.46725       -0.48250
H         -5.96453       -1.22342       -0.52309
C          1.86748       -4.89418       -8.57344
H          1.50665       -5.53680       -9.37503
C         -2.22601        1.26301       -4.46656
H         -2.50473        1.59460       -3.46238
H         -2.63298        0.26816       -4.68065
H         -2.55700        1.98961       -5.21959
C          3.19773       -4.44509       -8.58534
H          3.86843       -4.74198       -9.38978
O         -0.82794        1.91570       -1.92000
C         -0.42182        2.79949       -1.08292
N          0.93432        2.92962       -0.78075
H          1.11323        3.71466       -0.10523
C          1.91630        2.12632       -1.28793
N          1.72881        0.89178       -1.74126
O          0.00000        0.00000        0.00000
C          2.87369        0.30359       -2.24208
H          2.79163       -0.70433       -2.63527
C          3.99747        1.07588       -2.17513
S          3.58675        2.64163       -1.46342
C          5.38896        0.72742       -2.61676
H          5.78968        1.47148       -3.31862
H          6.07995        0.65876       -1.76449
H          5.36825       -0.24091       -3.13022
C         -1.30876        3.69166       -0.43805
N         -2.68769        3.59423       -0.85430
S         -3.74590        3.42979        0.42954
O         -3.34940        2.23100        1.16927
O         -5.11370        3.57593       -0.07695
C         -3.31875        4.88417        1.37454
C         -1.97212        5.31309        1.36168
C         -0.90233        4.60606        0.58496
O          0.31068        4.81997        0.89966
C         -1.62288        6.43186        2.13534
H         -0.57988        6.74034        2.13835
C         -2.59226        7.11281        2.87706
H         -2.30814        7.98071        3.47008
C         -3.92956        6.68756        2.85816
C         -4.29701        5.56619        2.10536
H         -5.32813        5.22097        2.07257
H         -4.68371        7.22687        3.42873
C         -3.08823        4.51345       -1.94299
H         -4.13767        4.33256       -2.19088
H         -2.94469        5.56890       -1.66317
H         -2.45735        4.28031       -2.80742
C          0.91440       -2.26321        0.86295
H          0.52978       -1.31125        0.49997
H          1.87722       -2.10506        1.34656
H          0.21353       -2.68826        1.57990
H          1.03706       -2.94827        0.02536
