36
CAPZIE Fe oxo CH4, charge 0 mult 4 bond 23 32
C         -2.44048        0.75025       -2.98660
H         -2.23121        1.82285       -3.05324
H         -3.52296        0.60716       -3.12203
C         -1.66396       -0.02767       -4.04216
H         -1.93390       -1.08911       -4.01686
H         -1.90608        0.35697       -5.04542
C          0.37317        1.38371       -4.17099
H         -0.05172        1.76183       -5.11099
H          1.45461        1.24972       -4.29632
C          0.17869        2.39447       -3.04241
C          0.48535       -1.04259       -4.53434
H          0.25240       -0.96833       -5.60759
H          0.13703       -1.99538       -4.12795
H          1.56165       -0.95883       -4.37081
C         -2.63873       -1.00972       -1.23212
H         -3.66339       -1.10472       -1.61238
H         -2.65784       -1.05800       -0.13742
C         -2.41676        1.35535       -0.61120
H         -3.50867        1.48517       -0.61155
H         -1.91097        2.28574       -0.87840
H         -2.06557        1.02503        0.36947
C         -1.75119       -2.15750       -1.72743
Cl         2.20358       -0.36302       -1.87997
O          0.00000        0.00000        0.00000
Fe        -0.00000        0.00000       -1.64631
N         -2.04830        0.30843       -1.61104
N         -0.19416        0.06089       -3.79374
O          0.11691        1.85506       -1.82026
O          0.10830        3.60214       -3.22451
O         -0.48053       -1.80384       -1.86754
O         -2.18057       -3.27966       -1.95364
C          2.40387       -0.42387        0.86295
H          1.39274       -0.24558        0.49997
H          2.43997       -0.24919        1.93724
H          2.68864       -1.45376        0.65286
H          3.09412        0.25306        0.36172
