48
CAVDOS Fe oxo CH4, charge 2 mult 4 bond 22 44
Fe        -0.00000        0.00000       -1.64973
Cl         1.77655        1.28933       -1.86660
N         -0.17433        0.09341       -3.69495
N         -1.13926        1.57069       -1.77909
C         -0.92856        1.14653       -4.12320
C         -1.11272        1.39653       -5.48880
C         -0.50187        0.55450       -6.42426
C          0.27969       -0.51425       -5.97142
C          0.42088       -0.71152       -4.59478
C         -1.47066        1.97988       -3.04292
C         -2.24792        3.13139       -3.21575
C         -2.66162        3.86021       -2.09495
C         -2.29155        3.42853       -0.81301
C         -1.52276        2.27259       -0.68728
H         -1.71203        2.23955       -5.81998
H         -0.62803        0.73763       -7.48863
H          0.78124       -1.18371       -6.66505
H          1.02985       -1.51700       -4.19744
H         -2.51749        3.46215       -4.21430
H         -3.25863        4.76027       -2.22285
H         -2.58183        3.97707        0.07901
H         -1.18687        1.88386        0.27035
O          0.00000        0.00000        0.00000
N         -1.54806       -1.24500       -1.72033
N          1.01152       -1.71400       -1.68412
C         -1.21120       -2.56765       -1.77138
C         -2.84579       -0.87823       -1.69336
C          0.22787       -2.83376       -1.72984
C          2.35341       -1.82650       -1.56826
C         -2.20526       -3.55279       -1.82540
C         -3.87575       -1.81900       -1.73782
H         -3.05479        0.18230       -1.62477
C          0.80605       -4.10791       -1.70136
C          2.97837       -3.07510       -1.52817
H          2.91574       -0.90057       -1.50490
C         -3.55113       -3.17799       -1.81093
H         -1.92897       -4.60209       -1.86752
H         -4.90783       -1.48022       -1.70854
C          2.19562       -4.23217       -1.60134
H          0.17845       -4.99319       -1.74046
H          4.06010       -3.12202       -1.43475
H         -4.33089       -3.93499       -1.84635
H          2.65540       -5.21709       -1.56946
C          2.15523        1.14596        0.86295
H          1.24869        0.66394        0.49997
H          2.41691        0.73918        1.83864
H          2.96909        0.96249        0.16303
H          1.98624        2.21822        0.95016
