105
CAVKUJ Fe oxo CH4, charge 0 mult 3 bond 7 101
Fe         0.00000        0.00000       -1.64155
O         -0.32295        0.97800       -4.37897
N          0.67341        1.86728       -1.78663
N         -1.87442        0.68316       -1.75507
N         -0.67799       -1.88934       -1.74216
N          1.87709       -0.68720       -1.78297
N         -0.00852        0.00058       -3.71480
O          0.00000        0.00000        0.00000
C          1.96538        2.27410       -2.04416
C          2.04663        3.71656       -2.03194
H          2.95255        4.28500       -2.20131
C          0.79542        4.17877       -1.74425
H          0.46068        5.20482       -1.65669
C         -0.05664        3.02022       -1.60475
C         -1.44341        3.09501       -1.41961
C         -2.28371        1.98060       -1.52532
C         -3.72476        2.04282       -1.45242
H         -4.29546        2.93959       -1.24671
C         -4.18738        0.78032       -1.68485
H         -5.21226        0.43125       -1.69953
C         -3.02755       -0.06510       -1.85273
C         -3.10432       -1.45886       -1.98196
C         -1.98827       -2.30108       -1.88258
C         -2.06204       -3.74309       -1.86288
H         -2.97149       -4.31826       -1.98179
C         -0.79427       -4.20178       -1.64603
H         -0.45892       -5.22637       -1.54491
C          0.06633       -3.04493       -1.59389
C          1.46145       -3.11285       -1.49394
C          2.29450       -1.99158       -1.61102
C          3.72949       -2.07571       -1.74197
H          4.30424       -2.99014       -1.66064
C          4.17635       -0.81578       -2.02803
H          5.19110       -0.49358       -2.22472
C          3.02163        0.04893       -2.02150
C          3.07596        1.43684       -2.20928
C         -2.04507        4.43563       -1.17476
C         -2.93157        5.01575       -2.10274
H         -3.17289        4.47319       -3.01557
C         -3.48206        6.28054       -1.86619
H         -4.16146        6.71914       -2.59605
C         -3.15303        6.98472       -0.70005
H         -3.58143        7.96904       -0.51629
C         -2.26772        6.41838        0.22719
H         -2.00987        6.95877        1.13707
C         -1.71621        5.15389       -0.00863
H         -1.03273        4.70687        0.71170
C         -4.45439       -2.06829       -2.14961
C         -5.21418       -1.79527       -3.30351
H         -4.79523       -1.14585       -4.07109
C         -6.48735       -2.35310       -3.46755
H         -7.06035       -2.13674       -4.36833
C         -7.02145       -3.18987       -2.47850
H         -8.01239       -3.62360       -2.60516
C         -6.27668       -3.46216       -1.32281
H         -6.69008       -4.10169       -0.54410
C         -5.00367       -2.90443       -1.15816
H         -4.43051       -3.09981       -0.25314
C          2.11326       -4.45027       -1.38355
C          2.05532       -5.36172       -2.45578
H          1.52001       -5.08316       -3.36187
C          2.69654       -6.60291       -2.36839
H          2.64724       -7.29597       -3.20748
C          3.40450       -6.94965       -1.20939
H          3.90324       -7.91546       -1.14143
C          3.46859       -6.04800       -0.13840
H          4.01406       -6.31250        0.76658
C          2.82865       -4.80559       -0.22504
H          2.87375       -4.10325        0.60605
C          4.38680        2.06833       -2.53514
C          4.56867        2.70995       -3.77529
H          3.74407        2.72816       -4.48671
C          5.79163        3.31194       -4.09318
H          5.91937        3.80015       -5.05843
C          6.84955        3.28273       -3.17458
H          7.80115        3.75139       -3.42107
C          6.67655        2.65172       -1.93514
H          7.49105        2.63498       -1.21209
C          5.45362        2.04998       -1.61644
H          5.31037        1.57250       -0.64823
C          0.38521       -1.20913       -4.51579
H          0.67021       -1.95913       -3.77630
C         -0.83206       -1.67908       -5.32202
H         -1.16645       -0.88052       -5.99647
H         -1.65349       -1.95202       -4.64937
H         -0.55121       -2.55812       -5.91418
C          1.61763       -0.85150       -5.39137
H          1.30704       -0.13769       -6.16563
H          2.36369       -0.35986       -4.75195
C          2.18976       -2.11478       -5.99295
C          2.96977       -2.97606       -5.19928
H          3.20064       -2.69376       -4.17306
C          3.45234       -4.18303       -5.71678
H          4.05229       -4.83736       -5.08566
C          3.16410       -4.54670       -7.03982
H          3.54045       -5.48506       -7.44500
C          2.39312       -3.69392       -7.84068
H          2.16945       -3.96591       -8.87143
C          1.90674       -2.48806       -7.31849
H          1.30664       -1.82726       -7.94487
C          1.43475        1.97477        0.86295
H          0.83126        1.14413        0.49997
H          2.18968        1.60068        1.55292
H          1.92279        2.46391        0.02124
H          0.79529        2.69036        1.37766
