68
CAWWOP Mn oxo CH4, charge 2 mult 4 bond 1 64
Mn         0.00000       -0.00000       -1.66547
O          0.00000        0.00000        0.00000
N         -0.11183        0.35826       -3.73501
N          0.85954        1.81639       -1.76955
N         -1.72823        1.02765       -1.76596
N         -0.92981       -1.73631       -2.14648
N          1.73554       -0.93029       -2.15425
C         -0.55245        1.80100       -3.69428
H         -0.68894        2.24392       -4.68873
C         -1.12214       -0.58363       -4.29573
H         -0.90358       -0.81069       -5.34724
H         -2.10342       -0.09150       -4.26488
C          1.25069        0.14208       -4.29869
H          1.79212        1.09716       -4.26594
H          1.19358       -0.16437       -5.35120
C          0.50085        2.52837       -2.87060
C          1.01416        3.79785       -3.11716
H          0.71704        4.35273       -4.00388
C          1.92232        4.33796       -2.19090
H          2.34338        5.32700       -2.35666
C          2.27448        3.60009       -1.05445
H          2.96384        3.99918       -0.31534
C          1.71765        2.33134       -0.86773
H          1.92105        1.70636       -0.00314
C         -1.83013        1.81819       -2.86710
C         -2.96234        2.58983       -3.10933
H         -3.02571        3.21582       -3.99611
C         -4.01294        2.53701       -2.17787
H         -4.91225        3.12701       -2.33911
C         -3.89103        1.72868       -1.04114
H         -4.68196        1.67993       -0.29761
C         -2.72364        0.98116       -0.85948
H         -2.54247        0.34921        0.00501
C         -1.19042       -1.84741       -3.46814
C         -1.58768       -3.05380       -4.07191
H         -1.77525       -3.08081       -5.14245
C         -1.73042       -4.18519       -3.28730
H         -2.02248       -5.13479       -3.73240
C         -1.50708       -4.10763       -1.89408
C         -1.10994       -2.84355       -1.32208
C          2.01154       -0.87308       -3.47626
C          3.00906       -1.65463       -4.08609
H          3.17751       -1.56750       -5.15661
C          3.75574       -2.52188       -3.30756
H          4.52395       -3.14867       -3.75721
C          3.52765       -2.58934       -1.91449
C          2.49829       -1.75916       -1.33643
C         -1.67595       -5.23841       -1.04756
H         -1.97037       -6.18520       -1.49631
C         -1.48441       -5.12619        0.31595
H         -1.62184       -5.98890        0.96343
C         -1.12237       -3.87359        0.87292
H         -0.99557       -3.78544        1.95011
C         -0.93186       -2.75347        0.07789
H         -0.66216       -1.79436        0.51022
C          4.29250       -3.44499       -1.07398
H          5.06126       -4.06796       -1.52716
C          4.06912       -3.46834        0.28916
H          4.65952       -4.11694        0.93184
C          3.07437       -2.62932        0.85204
H          2.91803       -2.63577        1.92891
C          2.29800       -1.79412        0.06297
H          1.54130       -1.14814        0.49848
C         -0.67282        2.34639        0.86295
H         -0.38981        1.35944        0.49997
H          0.15556        3.03809        0.71712
H         -1.54263        2.70032        0.31151
H         -0.91439        2.28772        1.92319
