68
CAWWUV Mn oxo CH4, charge 2 mult 4 bond 62 64
Mn         0.00000        0.00000       -1.66551
N          0.36646        0.10731       -3.73366
N          1.80898       -0.88566       -1.76686
N          1.05520        1.71278       -1.76342
N         -1.72045        0.95543       -2.14933
N         -0.94612       -1.72436       -2.15526
C          1.81548        0.52579       -3.69071
H          2.26097        0.65745       -4.68461
C         -0.55719        1.13349       -4.29531
H         -0.78761        0.91829       -5.34681
H         -0.04733        2.10590       -4.26662
C          0.13159       -1.25172       -4.29943
H          1.07965       -1.80488       -4.26423
H         -0.17197       -1.18977       -5.35236
C          2.52572       -0.54054       -2.86900
C          3.78394       -1.07899       -3.11947
H          4.34201       -0.79239       -4.00757
C          4.30726       -1.99977       -2.19608
H          5.28663       -2.44139       -2.36521
C          3.56501       -2.33794       -1.05815
H          3.95132       -3.03687       -0.32136
C          2.30839       -1.75527       -0.86752
H          1.68110       -1.94800       -0.00216
C          1.85137        1.80147       -2.86164
C          2.64459        2.91962       -3.09988
H          3.27453        2.97260       -3.98452
C          2.60820        3.96982       -2.16728
H          3.21533        4.85817       -2.32552
C          1.79431        3.86131       -1.03326
H          1.75803        4.65188       -0.28877
C          1.02488        2.70762       -0.85551
H          0.38771        2.53729        0.00729
C         -1.82035        1.22776       -3.46945
C         -3.01336        1.66293       -4.07395
H         -3.03129        1.85907       -5.14313
C         -4.14237        1.83323       -3.29166
H         -5.08159        2.15669       -3.73692
C         -4.07557        1.59684       -1.89983
C         -2.82526        1.15910       -1.32716
C         -0.89314       -2.00014       -3.47785
C         -1.68763       -2.98695       -4.08803
H         -1.60365       -3.15547       -5.15878
C         -2.56392       -3.72332       -3.30973
H         -3.20129       -4.48242       -3.75984
C         -2.62679       -3.49662       -1.91631
C         -1.78332       -2.47845       -1.33761
C         -5.20356        1.79108       -1.05520
H         -6.13995        2.11675       -1.50402
C         -5.10134        1.58452        0.30709
H         -5.96169        1.74169        0.95312
C         -3.86171        1.18144        0.86480
H         -3.78054        1.04296        1.94103
C         -2.74504        0.96603        0.07143
H         -1.79413        0.66789        0.50290
C         -3.49052       -4.25247       -1.07599
H         -4.12362       -5.01264       -1.52956
C         -3.50889       -4.03192        0.28772
H         -4.16343       -4.61572        0.93038
C         -2.65679       -3.04868        0.85129
H         -2.65908       -2.89475        1.92845
C         -1.81381       -2.28084        0.06224
H         -1.15791       -1.53239        0.49705
O          0.00000        0.00000        0.00000
C          2.34639        0.67282        0.86295
H          1.35944        0.38981        0.49997
H          2.43716        0.40444        1.91445
H          3.10860        0.14942        0.28762
H          2.48037        1.74760        0.74976
