48
CAXVAZ Mn oxo CH4, charge 2 mult 3 bond 2 44
Mn        -0.00000        0.00000       -1.61674
F         -0.41263       -1.57286       -2.16794
O          0.00000        0.00000        0.00000
N          0.13163        0.50667       -3.57474
C          2.35524       -0.31780       -3.35315
H          2.28652       -1.38419       -3.60379
H          3.38356        0.01008       -3.54797
C          1.33225        0.42717       -4.17831
C          1.48820        0.90062       -5.48290
H          2.44834        0.83701       -5.98898
C          0.36753        1.44929       -6.12749
H          0.46377        1.83253       -7.14100
C         -0.87946        1.49524       -5.48249
H         -1.75619        1.89261       -5.98797
C         -0.96458        1.00422       -4.17836
C         -2.21560        0.82992       -3.34997
H         -2.97904        1.58886       -3.56034
H         -2.64353       -0.15484       -3.57772
N         -1.89013        0.83170       -1.86744
N          2.05659       -0.19591       -1.86895
N          0.50424        1.92265       -1.48987
C          2.70525        1.03697       -1.27643
H          3.70940        1.17090       -1.69665
H          2.80507        0.85696       -0.19790
C          1.81595        2.23764       -1.47143
C          2.20058        3.57899       -1.50967
H          3.25311        3.85079       -1.49354
C          1.19922        4.56170       -1.55304
H          1.47606        5.61302       -1.58807
C         -0.15626        4.19895       -1.53100
H         -0.93868        4.95382       -1.53098
C         -0.48249        2.84183       -1.49192
C         -1.85258        2.24042       -1.31288
H         -2.05376        2.16525       -0.23610
H         -2.64852        2.84231       -1.76773
C         -2.90464        0.00762       -1.11451
H         -2.88167       -1.01171       -1.50810
H         -3.90294        0.44484       -1.24678
H         -2.62624        0.00222       -0.05777
C          2.53146       -1.42957       -1.14269
H          2.28224       -1.32184       -0.08410
H          3.61617       -1.53832       -1.27300
H          2.01068       -2.29561       -1.55866
C         -0.59052       -2.36844        0.86295
H         -0.34213       -1.37222        0.49997
H          0.27329       -3.02186        0.74976
H         -0.86833       -2.31287        1.91444
H         -1.42490       -2.76684        0.28762
