56
CECVUD Fe oxo CH4, charge 1 mult 3 bond 7 52
Fe         0.00000       -0.00000       -1.64288
S          1.99612        3.59501       -0.17686
N         -1.63063        1.10152       -1.76605
N         -0.06257       -0.29947       -3.69664
N          1.35596       -1.54957       -1.73256
N         -1.36024       -1.51412       -1.65120
N          1.09747        1.55317       -1.89519
O          0.00000        0.00000        0.00000
C         -1.70389        2.37589       -2.19948
H         -0.75935        2.82569       -2.48649
C         -2.92167        3.05690       -2.25560
H         -2.94184        4.08741       -2.59996
C         -4.09010        2.39641       -1.86324
H         -5.05193        2.90314       -1.89869
C         -4.00823        1.06717       -1.42793
H         -4.89630        0.52024       -1.11937
C         -2.75998        0.44744       -1.38308
C         -2.51732       -0.95325       -0.88170
H         -2.20137       -0.90578        0.16763
H         -3.40848       -1.59051       -0.96890
C          0.74523        0.31656       -4.58425
H          1.31246        1.15220       -4.18239
C          0.83633       -0.10735       -5.91076
H          1.49651        0.41178       -6.60062
C          0.07770       -1.21067       -6.31927
H          0.13695       -1.57492       -7.34272
C         -0.76331       -1.84260       -5.39520
H         -1.37228       -2.69679       -5.68395
C         -0.81322       -1.35149       -4.08841
C         -1.76330       -1.89911       -3.04618
H         -2.76026       -1.47610       -3.23056
H         -1.85239       -2.99071       -3.12204
C          2.67407       -1.56996       -2.15033
C          3.35674       -0.36623       -2.44927
H          2.82958        0.57232       -2.31924
C          4.67693       -0.40160       -2.86537
H          5.19170        0.53370       -3.07697
C          5.37326       -1.62914       -3.00733
H          6.41109       -1.62964       -3.33347
C          4.73286       -2.81835       -2.71882
H          5.25160       -3.77123       -2.81139
C          3.37909       -2.82162       -2.28274
C          2.69930       -4.02163       -1.96930
H          3.21737       -4.97444       -2.06657
C          1.38605       -3.96862       -1.54541
H          0.83318       -4.87016       -1.29211
C          0.75046       -2.71433       -1.43840
C         -0.66258       -2.61304       -0.92516
H         -1.20280       -3.56530       -1.02583
H         -0.63259       -2.32082        0.13175
C          1.46060        2.40986       -1.11382
C          0.99282        2.22992        0.86295
H          0.57522        1.29196        0.49997
H          1.93228        2.03391        1.37767
H          1.17241        2.89714        0.02124
H          0.29139        2.69666        1.55292
