46
CEHXOF Co oxo CH4, charge 1 mult 4 bond 2 42
Co         0.00000        0.00000       -1.64098
Cl         0.00000       -0.00000       -3.92999
O          0.00000        0.00000        0.00000
N         -1.58359       -3.64071       -2.81103
N         -0.30899       -4.11443       -2.60376
H         -0.08912       -5.06519       -2.88262
N         -0.24316       -2.06998       -1.84273
N          1.79682       -3.36132       -1.69286
H          2.16874       -4.29412       -1.84445
N          3.53408       -1.72606       -1.13239
H          4.39541       -2.19782       -1.39215
N          4.29730        0.30979       -2.16671
H          5.29603        0.14039       -2.23028
N          3.81033        1.54509       -2.51915
N          2.15594        0.17282       -1.74677
C         -1.49038       -2.41366       -2.33319
C          0.48886       -3.17500       -2.02873
C          2.44330       -2.55340       -0.65215
H          1.69214       -1.90215       -0.19489
H          2.85297       -3.22275        0.11111
C          3.31231       -0.49749       -1.68565
C          2.52571        1.41023       -2.24050
N          1.58359        3.64071       -2.81103
N          0.30900        4.11443       -2.60376
H          0.08912        5.06518       -2.88263
N          0.24316        2.06998       -1.84273
N         -1.79682        3.36132       -1.69286
H         -2.16873        4.29412       -1.84444
N         -3.53408        1.72606       -1.13239
H         -4.39541        2.19782       -1.39216
N         -4.29730       -0.30980       -2.16670
H         -5.29603       -0.14040       -2.23027
N         -3.81033       -1.54509       -2.51915
N         -2.15594       -0.17282       -1.74677
C          1.49038        2.41366       -2.33319
C         -0.48886        3.17500       -2.02873
C         -2.44329        2.55339       -0.65216
H         -1.69214        1.90214       -0.19489
H         -2.85296        3.22275        0.11111
C         -3.31230        0.49749       -1.68565
C         -2.52571       -1.41024       -2.24050
C          1.69563        1.75587        0.86295
H          0.98240        1.01731        0.49997
H          2.29951        1.31801        1.65638
H          2.34270        2.06838        0.04469
H          1.15790        2.61980        1.25076
