74
CEHXUM Fe oxo CH4, charge 1 mult 3 bond 7 70
Fe         0.00000       -0.00000       -1.69288
H         -0.00889       -0.06649       -3.28437
P         -2.22442        0.16694       -2.14976
P          2.17961       -0.51800       -2.11184
P         -0.32874       -2.19910       -2.01404
H         -0.35316       -3.07675       -0.90006
O          0.44631        2.89750       -2.02015
O          0.00000        0.00000        0.00000
C         -2.75542       -1.37238       -3.00244
C         -3.98910       -1.51193       -3.66337
H         -4.62793       -0.64809       -3.83194
C         -4.41558       -2.77110       -4.10168
H         -5.36727       -2.86794       -4.62017
C         -3.63731       -3.90820       -3.84751
H         -3.98905       -4.89052       -4.15560
C         -2.40631       -3.78326       -3.19483
H         -1.82444       -4.67628       -2.97880
C         -1.94275       -2.51270       -2.80954
C          1.02947       -2.87548       -3.04294
C          0.99492       -4.10795       -3.71533
H          0.10899       -4.73509       -3.68271
C          2.10244       -4.53109       -4.45887
H          2.06462       -5.47916       -4.99142
C          3.25274       -3.73501       -4.52097
H          4.11199       -4.06260       -5.10254
C          3.30115       -2.51427       -3.83765
H          4.20365       -1.91021       -3.89597
C          2.19142       -2.07132       -3.09609
C         -3.25694        0.17438       -0.59448
H         -2.90232        1.05990       -0.04471
C         -2.94037       -1.07730        0.24782
H         -3.50059       -1.02932        1.19091
H         -1.87212       -1.12666        0.48974
H         -3.24599       -1.99287       -0.27742
C         -4.76956        0.29420       -0.86369
H         -5.29633        0.36791        0.09701
H         -5.14722       -0.59736       -1.38084
H         -5.03158        1.18060       -1.45408
C         -2.86247        1.54490       -3.22484
H         -3.89481        1.24487       -3.46383
C         -2.93121        2.90153       -2.49351
H         -3.40011        3.63787       -3.15934
H         -1.93762        3.27793       -2.23305
H         -3.53215        2.85045       -1.57748
C         -2.06595        1.62698       -4.54157
H         -2.54862        2.34637       -5.21604
H         -2.01946        0.65544       -5.05062
H         -1.03912        1.96593       -4.36019
C          3.13185       -0.93611       -0.56392
H          3.09701       -0.01333        0.03535
C          2.39944       -2.04555        0.21532
H          2.94947       -2.26339        1.14037
H          2.35301       -2.97487       -0.37093
H          1.38691       -1.72639        0.48911
C          4.59648       -1.32484       -0.84673
H          5.10477       -1.51836        0.10718
H          5.15483       -0.53594       -1.36574
H          4.64903       -2.24431       -1.44453
C          3.24904        0.65110       -3.08645
H          4.14813        0.06133       -3.32453
C          2.56886        1.04789       -4.41030
H          3.27649        1.61766       -5.02698
H          1.69035        1.67908       -4.23289
H          2.24688        0.16730       -4.98096
C          3.70500        1.87128       -2.26019
H          4.38818        2.47653       -2.87055
H          4.24284        1.57640       -1.35073
H          2.86532        2.51060       -1.97100
C          0.26908        1.75822       -1.88902
C          0.33971        2.41720        0.86295
H          0.19682        1.40046        0.49997
H          1.38755        2.56744        1.11866
H          0.05063        3.12385        0.08642
H         -0.27614        2.57703        1.74674
