34
CEKNAH Fe oxo CH4, charge 0 mult 4 bond 6 30
Fe         0.00000        0.00000       -1.64212
Cl         2.28327        0.23084       -1.77240
Cl        -2.23465       -0.53305       -1.73700
Cl        -0.38130        2.18888       -1.79405
N          0.34809       -2.01622       -1.63291
N         -0.00058       -0.05926       -3.77413
O          0.00000        0.00000        0.00000
C         -0.25715       -2.74558       -0.66970
C         -0.05851       -4.11856       -0.55599
C          0.79125       -4.76041       -1.47647
C          1.42435       -3.98872       -2.46906
C          1.18484       -2.61778       -2.50517
C          1.01398       -6.17392       -1.40113
N          1.20053       -7.32955       -1.33670
C         -0.73564       -0.96184       -4.46200
C         -0.77318       -0.99675       -5.85364
C         -0.02515       -0.04555       -6.57241
C          0.73233        0.89967       -5.85594
C          0.71901        0.85571       -4.46354
C         -0.03419       -0.04374       -8.00563
N         -0.03743       -0.04815       -9.17798
H         -0.90556       -2.19595        0.00499
H          1.29146        1.55901       -3.86754
H         -0.55600       -4.67611        0.23171
H         -1.37635       -1.73952       -6.36726
H          1.31945        1.65347       -6.37179
H          2.09832       -4.44371       -3.18857
H          1.67979       -1.96898       -3.21977
H         -1.32077       -1.65360       -3.86366
C         -0.17027        2.43500        0.86295
H         -0.09865        1.41078        0.49997
H          0.82591        2.87167        0.91642
H         -0.78667        3.01938        0.18143
H         -0.62168        2.43818        1.85398
