37
CETACO Co oxo CH4, charge 2 mult 3 bond 8 33
Co        -0.00000        0.00000       -1.67181
C         -2.81448        0.25440       -1.45412
C         -2.33957        1.48566       -2.21812
C         -0.11921        2.68064       -2.67004
C          1.39282        2.33735       -2.61683
C          2.75405        0.18823       -2.26626
C          2.60068       -1.13021       -1.51522
C         -0.02271       -0.08766       -3.60019
O          0.00000        0.00000        0.00000
H         -2.82562        0.42816       -0.37238
H          2.63462        0.05977       -3.34694
H          3.31657       -1.88172       -1.86939
H          2.73113       -0.99748       -0.43545
H         -3.81555       -0.05884       -1.77418
H         -2.95479        2.36576       -1.99128
H         -2.33128        1.31423       -3.29961
H         -0.48980        2.55439       -3.68960
H          1.75664        2.13910       -3.62780
H          1.98922        3.14541       -2.17781
H          3.72213        0.66215       -2.05860
N         -1.81932       -0.85239       -1.71730
N         -0.91380        1.73751       -1.79478
N          1.63689        1.08572       -1.79702
N          1.18773       -1.62145       -1.73629
N         -0.02091       -0.17426       -4.77611
H          1.09219       -2.06650       -2.65854
H          0.93414       -2.31773       -1.02322
H         -0.32416        3.70604       -2.33952
H         -1.91637       -1.59709       -1.01469
H         -1.96996       -1.27288       -2.64374
H         -0.91552        2.08375       -0.82488
H          1.82161        1.35052       -0.81942
C         -0.59052       -2.36844        0.86295
H         -0.34213       -1.37222        0.49997
H          0.27329       -3.02186        0.74976
H         -0.86833       -2.31287        1.91444
H         -1.42490       -2.76684        0.28762
