47
CIBKIK Mn oxo CH4, charge 0 mult 3 bond 6 43
Mn        -0.00000       -0.00000       -1.63201
N         -0.33495       -1.96544       -1.60018
N         -1.98512        0.27864       -1.70044
N         -0.10561       -0.19921       -3.67965
O          1.85246       -0.30621       -1.71587
O          0.23676        1.81347       -1.96704
O          0.00000        0.00000        0.00000
S         -1.79933       -0.34623       -5.93818
C          1.79573       -2.40882       -0.50949
C          2.41284       -1.17938       -0.92043
C          3.75514       -0.95913       -0.49085
C          4.44133       -1.85599        0.30698
H          5.45556       -1.64516        0.63331
C          3.79352       -3.04677        0.68744
C          2.50609       -3.34538        0.28358
H          2.04550       -4.28416        0.58189
C          0.50877       -2.77812       -1.03302
H          0.23713       -3.83875       -0.98105
C         -1.56452       -2.48165       -2.21271
H         -1.51211       -3.57764       -2.27538
H         -1.59959       -2.08474       -3.23159
C         -2.83074       -2.05903       -1.43741
H         -3.00912       -2.74881       -0.60147
H         -3.67910       -2.15091       -2.12851
C         -2.77364       -0.62684       -0.85770
H         -3.79013       -0.23092       -0.72433
H         -2.26463       -0.63244        0.11292
C         -2.56308        1.21821       -2.38625
H         -3.65784        1.26473       -2.38933
C         -1.85553        2.23625       -3.12153
C         -0.47141        2.48062       -2.84584
C          0.15205        3.54817       -3.55198
C         -0.52235        4.31696       -4.48619
H         -0.01195        5.10923       -5.02559
C         -1.87650        4.03382       -4.72902
C         -2.55476        3.02686       -4.05796
H         -3.60076        2.83376       -4.28053
C         -0.80977       -0.26330       -4.64789
F          4.35200        0.18213       -0.87865
F          4.47501       -3.92330        1.46545
F          1.44859        3.79123       -3.29871
F         -2.53204        4.78133       -5.64599
C          0.83485        2.29374        0.86295
H          0.48369        1.32894        0.49997
H          1.81849        2.17538        1.31502
H          0.89964        2.99302        0.03064
H          0.13759        2.67764        1.60616
