60
CICWAP Mn oxo CH4, charge 1 mult 4 bond 11 56
Mn        -0.00000        0.00000       -1.65991
S          1.27272        3.60413       -3.94013
N          2.83021       -1.16327       -1.14437
N          1.76390       -0.88876       -1.94760
N          0.07728       -0.25179       -3.81587
N         -0.66382       -0.00971       -4.91415
N         -2.66829        1.68443       -1.62739
N         -1.95960        0.54246       -1.80621
N         -0.96940       -1.80888       -1.81187
N         -0.59095       -3.09498       -1.93494
N          0.70736        1.71138       -1.93433
O          0.00000        0.00000        0.00000
C          2.81388       -0.87439        0.29418
H          1.79819       -0.55065        0.54806
H          3.53185       -0.07438        0.50675
H          3.08997       -1.77991        0.84544
C          5.18292       -2.00514       -1.24779
H          5.05911       -2.78777       -0.48652
H          5.64376       -1.13516       -0.75979
H          5.87339       -2.37481       -2.01179
C          3.87656       -1.63996       -1.88020
C          3.46565       -1.67362       -3.21552
H          4.05857       -1.98869       -4.06373
C          2.15232       -1.18463       -3.22051
C          1.19311       -0.86577       -4.25998
C          1.15344       -1.00647       -5.66375
H          1.89916       -1.44793       -6.31130
C         -0.05426       -0.43611       -6.06254
C         -0.66088       -0.23581       -7.41727
H         -0.62512        0.82175       -7.71351
H         -1.70886       -0.56279       -7.44322
H         -0.10477       -0.81442       -8.16132
C         -2.00409        2.94853       -1.29493
H         -2.74825        3.60251       -0.83467
H         -1.59951        3.41841       -2.19765
H         -1.19624        2.73789       -0.59140
C         -5.03805        2.52874       -1.61401
H         -4.86838        3.34620       -2.32749
H         -5.03815        2.95627       -0.60166
H         -6.03211        2.11167       -1.80267
C         -4.01070        1.44740       -1.75318
C         -4.16501        0.08244       -2.00435
H         -5.10026       -0.44594       -2.13251
C         -2.86609       -0.44865       -2.01108
C         -2.29160       -1.77824       -2.07862
C         -2.75733       -3.08120       -2.35296
H         -3.76636       -3.39011       -2.59111
C         -1.64257       -3.91277       -2.24627
C         -1.49169       -5.39669       -2.38422
H         -2.41270       -5.82520       -2.79123
H         -1.29940       -5.86917       -1.41088
H         -0.66567       -5.65714       -3.05930
C          0.95773        2.49531       -2.81750
H         -1.54055        0.49083       -4.81299
H          0.37420       -3.34132       -1.74209
C          0.67282        2.34639        0.86295
H          0.38981        1.35944        0.49997
H          1.68987        2.31266        1.25076
H          0.61991        3.06303        0.04469
H         -0.00832        2.65044        1.65637
