40
CIDJUX Mn oxo CH4, charge 1 mult 4 bond 3 36
Mn         0.00000        0.00000       -1.67247
N          0.65481       -1.81357       -1.57198
Cl         2.04472        0.97077       -1.97038
O          0.00000        0.00000        0.00000
N         -0.86843        1.73545       -2.09673
C          0.98399       -2.50602       -2.64220
N          0.16117       -0.56569       -3.76178
N         -2.92345        2.86078       -2.46400
C         -2.47389       -1.73338       -1.33321
H         -1.76733       -2.52492       -1.10045
N         -4.14722        0.40407       -1.86959
O         -0.25427        2.94802       -2.35026
N         -1.95001       -0.53791       -1.66540
C          0.72178       -1.79258       -3.90482
C         -2.81672        0.48413       -1.89621
N          1.07960       -2.37827       -5.04864
C          0.86781       -1.65807       -6.16884
H          1.15672       -2.13119       -7.10551
C          0.31887       -0.37069       -6.13552
H          0.16991        0.20655       -7.04336
C         -0.02493        0.15122       -4.88455
H         -0.43684        1.14923       -4.75724
N          1.50256       -3.74285       -2.64595
C         -2.18156        1.77998       -2.16110
C         -4.66542       -0.80220       -1.56658
H         -5.75172       -0.86745       -1.54805
C         -3.85849       -1.90963       -1.27709
H         -4.28616       -2.87163       -1.01070
O          0.87220       -2.41096       -0.35174
H          0.65132       -1.61056        0.23930
H          0.70744        2.73620       -2.18467
H          1.82305       -4.11924       -3.53506
H          1.83871       -4.14871       -1.77729
H         -3.92979        2.78983       -2.33825
H         -2.48717        3.77800       -2.45388
C          1.75587        1.69563        0.86295
H          1.01731        0.98240        0.49997
H          2.32042        1.24932        1.68027
H          2.43528        1.95831        0.05344
H          1.25048        2.59248        1.21812
