42
CIDKEI Mn oxo CH4, charge 1 mult 4 bond 36 38
Mn        -0.00000        0.00000       -1.67517
Cl         0.04481        2.27447       -1.95288
O          2.54498       -0.21701       -0.35627
H          1.71782       -0.08825        0.22932
N          0.58899       -0.10115       -3.74413
N         -0.39624       -1.97825       -1.71436
C         -2.12524       -3.63750       -1.95898
H         -3.16586       -3.88521       -2.15179
N         -1.94168        0.00776       -2.03745
O         -2.76120        1.11302       -2.17763
H         -2.11954        1.86819       -2.04600
N         -3.92303       -1.22717       -2.28627
H         -4.44095       -0.35420       -2.20433
H         -4.41897       -2.05768       -1.98096
N          1.91351       -0.18605       -1.57908
C          2.68819       -0.16206       -2.64401
C          1.94035       -0.13515       -3.91384
C         -0.20454       -0.02442       -4.82356
H         -1.27140        0.03311       -4.62412
C          0.30662        0.00224       -6.12675
H         -0.37132        0.06798       -6.97335
C          2.52572       -0.12142       -5.18276
H          3.60524       -0.16542       -5.30466
N          4.03716       -0.20164       -2.55220
H          4.43312       -0.04685       -1.62686
H          4.61144        0.07560       -3.34032
C         -1.70491       -2.30480       -1.92020
C         -1.18306       -4.65097       -1.75087
H         -1.49012       -5.69379       -1.77266
C          0.14941       -4.30388       -1.50650
H          0.90732       -5.06021       -1.32267
C          0.50571       -2.95218       -1.49661
H          1.52089       -2.62483       -1.29554
C         -2.58448       -1.13915       -2.07124
C          1.69173       -0.05276       -6.30633
H          2.12312       -0.03694       -7.30438
O          0.00000        0.00000        0.00000
C         -0.67282        2.34639        0.86295
H         -0.38981        1.35944        0.49997
H          0.15556        3.03809        0.71712
H         -1.54263        2.70032        0.31151
H         -0.91439        2.28772        1.92319
