40
CIKZON Mn oxo CH4, charge -1 mult 1 bond 14 36
Mn         0.00000       -0.00000       -1.56507
O          1.79421        0.48080       -1.95837
O          2.42796       -2.97327       -2.60020
N          0.53810       -1.73197       -2.03834
N         -1.69427       -0.64843       -2.03727
O          3.80982       -0.44346       -2.40629
O         -0.72692        1.70145       -1.97208
O         -3.84157        0.07036       -2.58828
O         -2.70055        2.72063       -2.39899
C          2.60372       -0.54521       -2.21447
C          1.87628       -1.91010       -2.30518
C         -2.03635        1.70762       -2.21440
C         -2.66321        0.29324       -2.29908
N          0.09405        0.20784       -4.09934
O          0.00000        0.00000        0.00000
C         -0.37011       -4.01648       -2.50576
H          0.61162       -4.47528       -2.53302
C         -1.53259       -4.76092       -2.74406
C         -2.79673       -4.14821       -2.73878
C         -2.93020       -2.77515       -2.49562
H         -3.89847       -2.28815       -2.51531
C         -1.77596       -2.02424       -2.23878
Cl        -1.37085       -6.48735       -3.05264
Cl        -4.25500       -5.08868       -3.04065
C         -0.46417       -0.61295       -5.00682
H         -0.96077       -1.49617       -4.61091
C         -0.42472       -0.36576       -6.38337
H         -0.89322       -1.06359       -7.07472
C          0.22338        0.78802       -6.83676
H          0.27337        1.01472       -7.90127
C          0.80514        1.64575       -5.89597
H          1.31887        2.55513       -6.20184
C          0.71707        1.31844       -4.53945
H          1.15034        1.94116       -3.76154
C         -0.49271       -2.64607       -2.24355
C          1.07004        2.19391        0.86295
H          0.61996        1.27110        0.49997
H          1.98372        1.96215        1.40829
H          1.30535        2.83975        0.01830
H          0.37114        2.70266        1.52524
