39
COKKIX Fe oxo CH4, charge 0 mult 2 bond 9 35
Fe        -0.00000        0.00000       -1.60219
N         -0.62117       -1.90890       -1.57021
N          1.82035       -0.93671       -1.63509
N          0.09345       -0.82235       -4.66531
N          1.26866        2.58883       -2.55050
N         -2.82997        1.04138       -2.05624
C         -1.71345        0.69408       -1.90848
C          0.71892        1.58900       -2.24693
C          0.03921       -0.44464       -3.55136
O          0.00000        0.00000        0.00000
C         -1.91201       -2.28573       -1.55799
H         -2.64065       -1.48075       -1.58011
C         -2.26896       -3.63205       -1.53279
H         -3.32376       -3.89736       -1.52604
C         -1.27353       -4.62363       -1.51840
C         -1.62967       -6.09027       -1.51247
H         -0.75499       -6.71571       -1.30067
H         -2.03312       -6.38798       -2.49081
H         -2.40169       -6.30252       -0.76158
C          0.06188       -4.19796       -1.52642
H          0.86088       -4.93486       -1.51548
C          0.37347       -2.83374       -1.55391
C          1.74302       -2.29091       -1.59171
C          2.90184       -3.07551       -1.60383
H          2.82788       -4.15965       -1.56922
C          4.16453       -2.46877       -1.66857
C          5.42849       -3.29265       -1.71549
H          5.24850       -4.32313       -1.38784
H          6.20877       -2.85385       -1.08114
H          5.82026       -3.32765       -2.74243
C          4.20594       -1.06502       -1.71301
H          5.15513       -0.53604       -1.76415
C          3.01911       -0.33344       -1.69657
H          3.00015        0.75175       -1.74628
C         -0.75430        2.32148        0.86295
H         -0.43702        1.34501        0.49997
H          0.03594        3.04930        0.68481
H         -1.65647        2.62897        0.33622
H         -0.95963        2.26265        1.93079
