45
COKYEJ Mn oxo CH4, charge 1 mult 2 bond 30 41
Mn         0.00000        0.00000       -1.60459
O          0.96388       -1.67034       -1.84581
O          0.10567        0.15198       -3.61789
O         -1.92040       -0.49903       -4.42607
O         -3.20376        1.59233       -8.80909
O         -2.37482        3.57724       -9.31923
O          1.20284        5.47509       -6.52125
O          1.42809        4.59665       -4.51154
N         -1.60910       -1.17580       -1.81881
N         -1.16038       -2.53820       -1.84505
N          0.70536       -3.89591       -2.23770
N         -2.45114        2.55738       -8.62105
N          0.98890        4.59095       -5.69326
C          0.19508       -2.67830       -1.98229
C         -0.88624        0.20560       -4.46375
C         -0.76679        1.29177       -5.49902
C         -1.63653        1.37089       -6.59810
H         -2.36810        0.59208       -6.79254
C         -1.54961        2.48359       -7.43918
C         -0.68371        3.55477       -7.20684
H         -0.67493        4.42237       -7.85925
C          0.13694        3.45462       -6.08150
C          0.14052        2.32826       -5.26219
H          0.82607        2.26285       -4.42926
H         -2.28175       -1.07004       -1.05177
H         -2.00678       -0.93949       -2.76969
H         -1.78544       -3.19492       -2.31180
H          0.15283       -4.74318       -2.15683
H          1.71603       -3.99123       -2.21684
O         -0.94174        1.71040       -1.79966
O          0.00000        0.00000        0.00000
N          1.65444        1.19751       -1.75706
N          1.19662        2.52717       -1.97814
N         -0.63666        3.88122       -2.44203
C         -0.16202        2.67823       -2.08333
H          2.17832        0.86121       -2.57485
H          2.23953        1.17613       -0.91404
H          1.84067        3.20701       -2.38206
H         -0.03964        4.55490       -2.92111
H         -1.64331        3.97646       -2.52898
C          1.92350       -1.50280        0.86295
H          1.11442       -0.87068        0.49997
H          2.36985       -1.04937        1.74674
H          1.52970       -2.48537        1.11866
H          2.68001       -1.60578        0.08642
