44
COSBIX Fe oxo CH4, charge 1 mult 3 bond 38 40
Cl         0.02898       -0.11708       -3.98437
Fe         0.00000        0.00000       -1.65349
C         -1.77000       -2.49071       -1.55117
H         -0.86451       -3.04510       -1.33300
C         -3.00683       -3.14402       -1.64655
H         -3.05219       -4.22202       -1.51730
C         -4.15675       -2.39314       -1.90508
H         -5.12794       -2.87401       -1.99203
C         -4.03642       -1.00628       -2.03565
H         -4.90517       -0.37823       -2.21773
C         -2.76908       -0.42093       -1.92196
C         -2.53957        1.00634       -1.99954
H         -3.35482        1.70389       -2.19078
C         -0.76384        2.67664       -1.88479
C         -1.49718        3.86860       -1.96849
H         -2.58400        3.85212       -1.99249
C         -0.80981        5.08327       -2.01077
H         -1.36897        6.01377       -2.07264
N         -1.63706       -1.16801       -1.70675
N         -1.30417        1.38127       -1.84352
C          1.85750       -2.42069       -1.83356
H          0.95929       -3.02295       -1.89959
C          3.12585       -3.01625       -1.87165
H          3.20525       -4.09746       -1.94565
C          4.26264       -2.20524       -1.81497
H          5.25881       -2.64006       -1.83890
C          4.09401       -0.81926       -1.74352
H          4.94779       -0.14622       -1.72268
C          2.79594       -0.29356       -1.71201
C          2.51062        1.12576       -1.72318
H          3.31067        1.86568       -1.74275
C          0.65487        2.70908       -1.83875
C          1.33613        3.93356       -1.88835
H          2.42244        3.96747       -1.86130
C          0.59721        5.11532       -1.97265
H          1.11595        6.07032       -2.00735
N          1.68289       -1.09728       -1.73603
N          1.24941        1.43946       -1.76109
O          0.00000        0.00000        0.00000
C          0.33971       -2.41720        0.86295
H          0.19682       -1.40046        0.49997
H          1.38755       -2.56744        1.11866
H         -0.27614       -2.57703        1.74674
H          0.05063       -3.12385        0.08642
