47
CTAZCO10 Co oxo CH4, charge 2 mult 3 bond 19 43
Co        -0.00000       -0.00000       -1.65805
N          1.02124        1.67200       -1.71074
C          0.60644        2.80707       -2.14978
C          1.45630        4.04596       -2.26210
C         -0.81964        2.93219       -2.68165
O         -1.06325        3.79765       -3.50042
C         -1.97599        2.08357       -2.14948
C         -3.31203        2.75944       -2.27062
N         -1.74932        0.89716       -1.70808
C         -2.78201       -0.06842       -1.27130
C         -2.45654       -1.38389       -1.97089
N         -1.03847       -1.74292       -1.64619
C         -0.51676       -2.88286       -2.46731
C          0.91947       -3.24974       -2.09142
C          1.94761       -2.18359       -2.47115
N          1.79988       -0.93809       -1.64976
C          2.82094        0.10781       -1.98188
C          2.41158        1.40301       -1.28742
Cl        -0.00573        0.01300       -3.90505
O          0.00000        0.00000        0.00000
H         -2.52636       -1.27627       -3.05810
H         -3.12517       -2.18722       -1.63541
H         -3.52189        2.91802       -3.33872
H         -4.12668        2.20063       -1.80814
H         -3.25400        3.75628       -1.81310
H         -3.78607        0.27243       -1.53567
H         -2.70496       -0.15729       -0.17868
H          2.40544        1.29570       -0.19337
H          3.07672        2.22670       -1.56392
H         -0.60105       -2.59333       -3.51952
H         -1.18266       -3.73870       -2.28303
H          1.17899       -4.16545       -2.63816
H          0.99300       -3.50460       -1.02215
H          1.86034       -1.89267       -3.52267
H          2.96451       -2.56309       -2.29305
H          2.24392        3.88871       -3.01414
H          0.84218        4.88893       -2.58826
H          1.93142        4.28122       -1.30131
H         -0.98581       -2.00860       -0.65283
H          1.89965       -1.19037       -0.65637
H          2.81850        0.23221       -3.06948
H          3.81225       -0.22638       -1.64966
C         -0.67282        2.34639        0.86295
H         -0.38981        1.35944        0.49997
H          0.15556        3.03809        0.71712
H         -1.54263        2.70032        0.31151
H         -0.91439        2.28772        1.92319
