50
CUKLUP Co oxo CH4, charge 1 mult 5 bond 7 46
Co         0.00000       -0.00000       -1.70782
C         -2.73192        0.95133       -2.16227
O          1.72904       -2.36369       -2.78315
C         -2.77114       -0.50923       -2.41216
O          1.20944        2.36602       -0.57973
C         -4.03479       -1.20315       -2.83152
O         -1.42789        2.74874       -1.59971
O          0.00000        0.00000        0.00000
O         -1.67134       -2.49873       -2.53572
N          1.75659       -1.11160       -2.20469
N          1.54342        1.32113       -1.51495
N         -1.54543        1.40308       -1.87069
N         -1.63544       -1.13332       -2.24667
N          0.09694        0.40625       -3.99423
C          4.22297       -1.04738       -2.51345
C         -0.09339       -0.56201       -4.91628
C          2.89684       -0.47114       -2.09232
C         -0.05566       -0.31295       -6.29052
C          2.75561        0.83340       -1.41476
C          0.18820        0.99341       -6.73225
C          3.86844        1.43331       -0.60793
C          0.38267        2.00132       -5.78002
C         -3.97002        1.79896       -2.22872
C          0.32827        1.66417       -4.42566
H          0.74217        1.78798        0.10339
H         -0.79654       -2.81199       -2.21579
H          4.44084       -1.98549       -1.97996
H          5.03801       -0.35049       -2.30221
H          4.23784       -1.24752       -3.59654
H          3.49961        2.30791       -0.06698
H          4.69285        1.74409       -1.26567
H          4.26853        0.70083        0.10603
H         -3.71101        2.85358       -2.10962
H         -4.67037        1.51720       -1.42966
H         -4.91416       -0.70103       -2.41607
H         -4.01853       -2.24692       -2.50378
H         -4.12573       -1.19444       -3.92815
H         -0.28963       -1.55826       -4.52702
H         -0.21806       -1.12626       -6.99397
H          0.22157        1.22183       -7.79562
H          0.56832        3.03110       -6.07595
H          0.46342        2.41359       -3.64967
H         -4.48545        1.66073       -3.18819
H         -0.47990        2.82323       -1.29071
H          2.64126       -2.61589       -3.06847
C         -0.50750       -2.38761        0.86295
H         -0.29403       -1.38332        0.49997
H          0.38889       -3.00077        0.78268
H         -0.82133       -2.33805        1.90457
H         -1.30353       -2.82830        0.26458
