68
CUKMIF Mn oxo CH4, charge 1 mult 4 bond 2 64
Mn        -0.00000       -0.00000       -1.65404
Cl        -1.98049        1.03987       -1.97792
O          0.00000        0.00000        0.00000
N         -0.88557       -1.76573       -1.78025
N          1.10415        1.66724       -1.78972
O          1.78786       -0.83706       -1.73148
O          0.06055       -0.31309       -3.75958
O          6.36873        5.24803       -1.90587
O          7.05637        3.02895       -1.88613
O         -2.85345       -5.73547       -5.96890
O         -3.66744       -6.95337       -4.16593
C          2.75766       -0.00859       -1.77213
C          4.14521       -0.41437       -1.79086
C          4.46565       -1.78858       -1.75996
H          3.65013       -2.50670       -1.72350
C          5.79355       -2.19778       -1.77032
H          6.04382       -3.25587       -1.74428
C          6.81337       -1.22894       -1.81095
H          7.85577       -1.54148       -1.81793
C          6.51372        0.13435       -1.83934
H          7.32288        0.85556       -1.86707
C          5.17457        0.57986       -1.82896
C          4.81292        1.99834       -1.84835
C          5.69700        3.07141       -1.87108
C          7.52878        4.40079       -1.88988
H          8.10355        4.57863       -0.97520
H          8.11987        4.56818       -2.79559
C          5.27522        4.43371       -1.88299
C          3.96018        4.82082       -1.87464
H          3.66460        5.86544       -1.88351
C          2.99723        3.76750       -1.84985
C          1.60443        4.00536       -1.83279
H          1.23009        5.02633       -1.83817
C          0.69260        2.95257       -1.80405
H         -0.38265        3.10371       -1.78750
C          2.43361        1.40289       -1.80087
C          3.42982        2.39468       -1.83636
C         -1.35706       -2.45731       -0.72136
H         -1.17860       -1.99213        0.24419
C         -2.02461       -3.66458       -0.89576
H         -2.39584       -4.19787       -0.02380
C         -2.23128       -4.20036       -2.18820
C         -2.91815       -5.43200       -2.40445
H         -3.31231       -6.01869       -1.58039
C         -3.05506       -5.82428       -3.71087
C         -3.59078       -6.92780       -5.60124
H         -4.59950       -6.86485       -6.02249
H         -3.04332       -7.80667       -5.95543
C         -2.55329       -5.07571       -4.81624
C         -1.87352       -3.87230       -4.67765
C         -1.34173       -3.05008       -5.76745
C         -1.46490       -3.41475       -7.12536
H         -1.96389       -4.33890       -7.39467
C         -0.95444       -2.59558       -8.13462
H         -1.06752       -2.90255       -9.17259
C         -0.30503       -1.38609       -7.82945
H          0.08252       -0.75529       -8.62628
C         -0.16773       -1.00441       -6.49963
H          0.32255       -0.07440       -6.22248
C         -0.67467       -1.82141       -5.46783
C         -0.51772       -1.38979       -4.09015
C         -1.06084       -2.24050       -3.03302
C         -1.72406       -3.44924       -3.30944
C         -1.97477        1.43475        0.86295
H         -1.14413        0.83126        0.49997
H         -2.12091        2.28689        0.20081
H         -2.88077        0.83087        0.88276
H         -1.75327        1.79001        1.86826
