52
CUNBAQ Mn oxo CH4, charge 0 mult 3 bond 46 48
Mn        -0.00000        0.00000       -1.63867
Br         0.00094       -0.00449       -4.36158
C         -2.86971       -2.38216       -3.24269
C         -2.35996       -1.18918       -2.63639
C         -3.04245        0.04156       -2.86891
C         -4.22177        0.06108       -3.64408
H         -4.73486        1.00810       -3.80557
C         -4.69945       -1.10935       -4.22273
H         -5.59663       -1.09164       -4.83771
C         -4.02302       -2.33074       -4.02723
H         -4.40518       -3.23165       -4.50057
O         -2.14037       -3.50497       -2.98062
C         -2.56704       -4.71569       -3.61220
H         -3.57602       -5.00139       -3.27951
H         -1.84600       -5.47496       -3.29994
H         -2.55245       -4.61362       -4.70697
O         -1.31882       -1.29384       -1.84593
C         -2.55567        1.26726       -2.28511
H         -3.23379        2.12832       -2.31596
N         -1.38808        1.43090       -1.74437
C         -1.03774        2.71771       -1.13962
H         -1.87352        3.42607       -1.22410
H         -0.14403        3.10295       -1.64115
H         -0.79433        2.53992       -0.08568
C          2.87320        2.38380       -3.23578
C          2.36096        1.18908       -2.63525
C          3.04322       -0.04143       -2.86941
C          4.22392       -0.05920       -3.64266
H          4.73685       -1.00601       -3.80597
C          4.70360        1.11282       -4.21658
H          5.60196        1.09635       -4.82991
C          4.02809        2.33426       -4.01802
H          4.41284        3.23665       -4.48646
O          2.14479        3.50642       -2.96995
C          2.57521        4.72010       -3.59311
H          3.58498        5.00075       -3.25821
H          1.85629        5.47933       -3.27572
H          2.56048        4.62598       -4.68867
O          1.31746        1.29288       -1.84804
C          2.55651       -1.26779       -2.28652
H          3.23425       -2.12909       -2.31910
N          1.38989       -1.43117       -1.74377
C          1.03890       -2.71765       -1.13898
H          1.87362       -3.42733       -1.22284
H          0.14492       -3.10165       -1.64090
H          0.79513       -2.53907       -0.08532
O          0.00000        0.00000        0.00000
C         -2.32148       -0.75430        0.86295
H         -1.34501       -0.43702        0.49997
H         -2.85847       -1.26238        0.06331
H         -2.19281       -1.43485        1.70331
H         -2.88964        0.11706        1.18520
