48
CUXRAR Fe oxo CH4, charge 2 mult 3 bond 4 44
Fe         0.00000       -0.00000       -1.64554
S          0.59072       -2.26344       -1.61028
S         -0.09858       -0.15856       -4.08301
S         -2.33787        0.07789       -1.67140
O          0.00000        0.00000        0.00000
N          1.88105        0.31344       -1.89770
N         -0.13533        1.90758       -1.82232
C          2.86038       -0.59769       -1.80384
C          4.20315       -0.20047       -2.01744
H          4.99505       -0.94243       -1.94921
C          4.51096        1.13243       -2.28714
H          5.54783        1.42585       -2.43946
C          3.47879        2.10916       -2.33657
C          3.63148        3.52868       -2.53461
H          4.62828        3.92823       -2.70793
C          2.55032        4.38363       -2.48343
H          2.70091        5.45285       -2.61519
C          1.21702        3.89654       -2.23331
C          0.03420        4.66978       -2.07676
H          0.07248        5.75246       -2.18028
C         -1.17385        4.04845       -1.76100
H         -2.07145        4.64204       -1.60610
C         -1.23787        2.64148       -1.61378
C          1.05935        2.50265       -2.09046
C          2.16974        1.62526       -2.13575
C          2.42250       -1.97897       -1.38449
H          2.58389       -2.10439       -0.30384
H          2.96914       -2.78099       -1.89482
C          0.52629       -2.81627       -3.37027
H          1.22070       -3.65979       -3.48240
H         -0.48505       -3.22216       -3.49393
C          0.83477       -1.72023       -4.38878
H          0.62050       -2.05706       -5.41131
H          1.88779       -1.41548       -4.35595
C         -1.86500       -0.66533       -4.31345
H         -2.11649       -0.57523       -5.37684
H         -1.99856       -1.70637       -3.99882
C         -2.72263        0.28642       -3.48140
H         -3.78686        0.06092       -3.61969
H         -2.54016        1.33191       -3.75991
C         -2.44133        1.86180       -1.14444
H         -3.39624        2.27769       -1.48603
H         -2.45913        1.82598       -0.04548
C         -1.50280       -1.92350        0.86295
H         -0.87068       -1.11442        0.49997
H         -1.20567       -2.85732        0.38798
H         -1.39227       -2.01411        1.94252
H         -2.54258       -1.70812        0.62132
