48
CUXREV Fe oxo CH4, charge 2 mult 3 bond 6 44
Fe        -0.00000       -0.00000       -1.64576
S         -2.26962        0.56056       -1.61428
S         -0.08681        0.16672       -4.08015
S          1.18906        2.01650       -1.66288
N         -0.62138       -1.80174       -1.91153
N          1.74136       -0.79124       -1.82566
O          0.00000        0.00000        0.00000
C         -1.89076       -2.22699       -1.83336
C         -2.18320       -3.59186       -2.07464
H         -3.21359       -3.93389       -2.01765
C         -1.15877       -4.49375       -2.36016
H         -1.39643       -5.54091       -2.53644
C          0.19261       -4.05317       -2.39797
C          1.36654       -4.86003       -2.61840
H          1.24166       -5.92223       -2.81624
C          2.63403       -4.31899       -2.56074
H          3.50089       -4.95819       -2.71237
C          2.84360       -2.92070       -2.28097
C          4.08774       -2.25094       -2.12221
H          5.02083       -2.79733       -2.24385
C          4.11854       -0.89815       -1.78325
H          5.06906       -0.39427       -1.62734
C          2.91314       -0.17406       -1.61596
C          1.69428       -2.12076       -2.11390
C          0.39335       -2.67720       -2.16523
C         -2.89499       -1.18646       -1.40358
H         -3.08013       -1.27736       -0.32322
H         -3.86200       -1.28020       -1.91197
C         -2.71796        0.90072       -3.37227
H         -3.79180        0.70246       -3.48953
H         -2.58327        1.98366       -3.48248
C         -1.90415        0.11199       -4.39675
H         -2.08819        0.47708       -5.41536
H         -2.15002       -0.95660       -4.38013
C          0.32928        1.95698       -4.31299
H          0.54078        2.12831       -5.37501
H         -0.51924        2.58111       -4.01078
C          1.56938        2.25057       -3.47079
H          1.88740        3.29090       -3.60892
H          2.39846        1.58459       -3.74057
C          2.80179        1.24966       -1.12953
H          3.62640        1.89304       -1.45684
H          2.76818        1.26946       -0.03058
C         -0.99282        2.22992        0.86295
H         -0.57522        1.29196        0.49997
H         -0.33178        3.05123        0.59022
H         -1.97266        2.38848        0.41496
H         -1.09164        2.18800        1.94664
