124
DADHIB Fe oxo CH4, charge 1 mult 3 bond 51 120
Fe         0.00000        0.00000       -1.64456
Se        -0.55152        4.17144       -3.39172
N         -0.98406        1.66536       -1.83063
C         -0.78994        2.67557       -2.45461
N          0.11757       -3.76645       -4.93585
N          0.94720       -1.75379       -1.64929
N         -1.70255       -0.98403       -1.69262
N         -0.72313       -2.65829       -3.05173
C         -3.97268       -1.12102       -0.93105
H         -4.78192       -0.68758       -0.34991
N         -1.97962       -2.60071       -4.99574
C          0.49645       -2.82201       -2.34783
C         -1.85141       -2.14222       -2.36384
C         -0.86708       -3.04470       -4.40786
C          2.04168       -1.89427       -0.86378
H          2.31155       -1.01804       -0.28552
C         -2.73719       -0.48756       -0.96684
H         -2.52337        0.43600       -0.44050
C          1.17082       -4.05049       -2.32944
H          0.76983       -4.87830       -2.89931
N          0.85389       -4.83340       -6.85681
N         -1.09143       -3.57270       -7.01747
C         -3.06564       -2.84404       -2.35516
H         -3.14052       -3.77818       -2.90089
N         -3.06041       -2.33666       -7.02790
C         -2.01508       -2.86108       -6.33468
C         -0.07088       -4.03309       -6.26262
C         -4.13990       -2.31988       -1.64186
H         -5.09006       -2.84917       -1.62151
C         -4.15898       -1.67162       -6.30586
H         -4.65234       -1.00439       -7.02343
H         -3.71441       -1.06162       -5.51270
C          1.88774       -5.48627       -6.03566
H          2.27057       -4.74404       -5.32911
H          2.70310       -5.76223       -6.71539
C          0.70271       -5.19559       -8.27609
C         -0.24209       -6.38189       -8.51397
C          1.38169       -6.72324       -5.27908
H          0.53271       -6.45581       -4.63742
H          2.18376       -7.12682       -4.64564
H          1.05839       -7.51597       -5.96399
C         -3.17189       -2.57861       -8.47722
C         -3.80692       -3.93045       -8.83127
C         -5.16968       -2.64963       -5.68968
H         -5.67227       -3.24999       -6.45720
H         -5.93568       -2.09250       -5.13344
H         -4.65884       -3.32633       -4.99417
C          2.33194       -4.17043       -1.56740
H          2.86988       -5.11551       -1.54122
C          2.76584       -3.07917       -0.80644
H          3.65088       -3.13904       -0.18033
O          0.00000        0.00000        0.00000
N          3.42605       -1.73716       -4.95472
N          0.09641        0.04738       -3.74530
N          1.66169        1.05860       -1.67721
N          2.43183       -0.11706       -3.58528
C          2.90322        2.87698       -0.71731
H          2.96714        3.65473        0.03841
N          4.35499       -1.14314       -2.82050
C          1.27373       -0.03332       -4.40295
C          2.62782        0.88474       -2.59886
C          3.46647       -1.05131       -3.81430
C         -1.03115        0.26702       -4.46254
H         -1.93921        0.37925       -3.88059
C          1.78855        2.05113       -0.75680
H          0.96161        2.13536       -0.06012
C          1.35915        0.03800       -5.79908
H          2.32916       -0.02977       -6.27416
N          4.50750       -3.34211       -6.23011
N          5.34742       -2.92892       -4.10338
C          3.77226        1.69468       -2.62783
H          4.51691        1.52541       -3.39838
N          6.13714       -2.36874       -1.98938
C          5.26292       -2.14302       -3.00719
C          4.43182       -2.65611       -5.05803
C          3.91578        2.69527       -1.67191
H          4.79249        3.33898       -1.68187
C          6.17326       -1.44989       -0.83861
H          6.62444       -2.00268       -0.00506
H          5.13854       -1.20654       -0.57555
C          3.64647       -2.95213       -7.35959
H          2.63947       -2.77786       -6.96954
H          3.60538       -3.81378       -8.03752
C          5.57380       -4.33751       -6.42918
C          6.89743       -3.73857       -6.92562
C          4.14260       -1.70628       -8.10800
H          4.23780       -0.86064       -7.41545
H          3.42558       -1.43324       -8.89455
H          5.11741       -1.87533       -8.58051
C          7.16326       -3.41749       -2.12684
C          8.40372       -2.97062       -2.91311
C          6.94468       -0.15003       -1.10908
H          7.99980       -0.34434       -1.33490
H          6.89720        0.50118       -0.22573
H          6.49524        0.38185       -1.95601
C          0.18443        0.21174       -6.53042
H          0.22424        0.27748       -7.61555
C         -1.03040        0.34893       -5.85039
H         -1.96268        0.51588       -6.38102
H          1.70867       -5.41924       -8.65496
H          0.32658       -4.31049       -8.79894
H         -1.23187       -6.16190       -8.09775
H         -0.35117       -6.56140       -9.59179
H          0.13858       -7.30127       -8.05256
H         -2.16097       -2.52309       -8.89425
H         -3.76224       -1.75118       -8.89091
H         -4.84320       -3.99545       -8.47802
H         -3.80986       -4.06577       -9.92108
H         -3.22819       -4.74617       -8.38308
H          5.18975       -5.07450       -7.14736
H          5.73029       -4.84038       -5.46980
H          7.25302       -2.97668       -6.22234
H          7.65893       -4.52653       -6.99722
H          6.78809       -3.28037       -7.91611
H          6.69205       -4.26820       -2.62996
H          7.43769       -3.72606       -1.11002
H          8.93253       -2.15488       -2.40526
H          9.09956       -3.81347       -3.01974
H          8.11207       -2.63372       -3.91444
C         -1.43475        1.97477        0.86295
H         -0.83126        1.14413        0.49997
H         -1.08216        2.90262        0.41496
H         -2.47655        1.81294        0.59022
H         -1.34905        2.03939        1.94664
