41
DAKROA Fe oxo CH4, charge 1 mult 2 bond 22 37
N         -1.26759        1.50964       -1.69168
N          0.89591       -1.75898       -1.70316
C         -2.52532        1.15698       -1.30781
C         -3.58300        2.06004       -1.39018
H         -4.58214        1.75549       -1.08742
C         -3.33233        3.35567       -1.86379
H         -4.14237        4.07809       -1.93357
C         -2.03541        3.70089       -2.25347
H         -1.80136        4.69228       -2.63177
C         -1.01846        2.74666       -2.16328
H          0.00626        2.94342       -2.46372
C          0.08385       -2.78173       -1.31738
C          0.49745       -4.10817       -1.42145
H         -0.17048       -4.91073       -1.11732
C          1.77885       -4.38086       -1.92125
H          2.12263       -5.40890       -2.01012
C          2.59922       -3.31959       -2.31241
H          3.59576       -3.48967       -2.71074
C          2.12300       -2.01055       -2.19832
H          2.70199       -1.14254       -2.49931
Fe        -0.00000       -0.00000       -1.60626
Cl         1.82724        1.20298       -2.03705
O          0.00000        0.00000        0.00000
O         -0.28837       -0.17792       -3.48372
O         -1.62327       -0.97898       -5.15084
N         -1.70857       -1.13824       -1.51787
C         -2.65155       -0.24512       -0.76114
H         -2.33011       -0.25839        0.28823
H         -3.67875       -0.62511       -0.83008
C         -1.24938       -2.34945       -0.75521
H         -2.00144       -3.14671       -0.81027
H         -1.12376       -2.03755        0.28970
C         -2.20083       -1.46967       -2.87409
H         -3.22362       -1.10526       -3.00963
H         -2.18211       -2.55303       -3.02891
C         -1.30901       -0.82313       -3.98249
C          2.02364        1.36496        0.86295
H          1.17245        0.79082        0.49997
H          2.39322        0.92171        1.78646
H          2.81405        1.35521        0.11390
H          1.71485        2.39211        1.05146
