36
DAQHOT Fe oxo CH4, charge 0 mult 2 bond 5 32
Fe        -0.00000       -0.00000       -1.61554
O         -2.93418        2.12675       -3.31839
O         -3.56626       -0.69761       -3.29593
C          1.86278       -0.40861       -1.51923
C          0.58622       -0.13468       -3.52570
O          0.00000        0.00000        0.00000
C          0.13582       -2.94813       -1.40687
H          1.09750       -2.75381       -0.94203
C         -0.36538       -4.23542       -1.62118
H          0.22252       -5.09287       -1.30398
C         -1.60925       -4.39653       -2.24462
H         -2.01034       -5.39198       -2.42315
C         -2.32747       -3.26259       -2.63787
H         -3.29790       -3.31244       -3.12475
C         -1.76982       -2.00832       -2.39792
C         -2.45397       -0.73204       -2.78535
C         -1.91563        1.69182       -2.79652
C         -0.76053        2.56353       -2.40497
C         -0.74219        3.93608       -2.64493
H         -1.60022        4.38602       -3.13752
C          0.37998        4.66731       -2.24183
H          0.43076        5.73964       -2.41867
C          1.43842        4.00194       -1.61054
H          2.32694        4.53634       -1.28455
C          1.35646        2.62226       -1.39955
H          2.14684        2.04476       -0.92997
N          3.00625       -0.65302       -1.37815
N          0.87325       -0.20381       -4.66563
N         -0.56518       -1.86740       -1.79579
N          0.27179        1.93242       -1.79691
N         -1.64789        0.36242       -2.44149
C         -2.38761        0.50750        0.86295
H         -1.38332        0.29403        0.49997
H         -3.00542        0.85706        0.03709
H         -2.82195       -0.39845        1.28307
H         -2.33975        1.27737        1.63166
