84
DAQHEM Fe oxo CH4, charge 1 mult 3 bond 3 80
Fe         0.00000       -0.00000       -1.64779
S         -2.62758       -1.70466       -2.52956
P          0.09566        0.06756       -4.17793
O          0.00000        0.00000        0.00000
F         -3.72313       -3.01201       -0.51097
F         -4.46967       -0.96518       -0.79621
F         -5.09006       -2.56421       -2.16985
O         -1.67079       -1.12743       -1.50949
O         -3.11680       -0.67974       -3.47960
O         -2.16055       -2.98745       -3.08536
N         -2.39329        1.68095       -2.06703
H         -2.85230        0.84090       -2.44723
N         -1.05993        1.62394       -1.80956
N          0.55857       -2.84027       -2.06711
H         -0.44927       -2.96751       -2.21633
N          1.05248       -1.59779       -1.86964
N          1.61083        1.06110       -1.62921
N          0.63344        3.20914       -1.29721
H          0.82616        4.17583       -1.05300
N          3.29372       -0.71478       -1.61789
C         -2.87546        2.94774       -2.00789
C         -1.79140        3.76722       -1.67133
H         -1.80114        4.83899       -1.52571
C         -0.69607        2.89472       -1.56855
C          1.69169        2.37223       -1.35266
C          3.06763        2.79651       -1.11901
C          3.65249        4.03512       -0.83752
H          3.07064        4.95131       -0.74248
C          5.04428        4.06640       -0.67059
H          5.53450        5.01102       -0.44657
C          5.81737        2.89494       -0.78574
H          6.89470        2.95558       -0.64761
C          5.22576        1.65457       -1.07052
H          5.81563        0.74552       -1.15560
C          3.84210        1.62537       -1.23474
C          2.92222        0.52075       -1.51732
C          2.40685       -1.73910       -1.82245
C          2.74444       -3.10031       -2.00237
H          3.74471       -3.50900       -1.99987
C          1.54155       -3.78237       -2.16537
C         -4.32971        3.28808       -2.25427
C         -5.11096        2.05392       -2.75501
H         -6.15701        2.33625       -2.92438
H         -4.70981        1.67333       -3.70392
H         -5.10304        1.23867       -2.02037
C         -4.94149        3.78284       -0.91739
H         -5.99334        4.05485       -1.07462
H         -4.89647        2.99869       -0.15084
H         -4.41148        4.66684       -0.53939
C         -4.40275        4.41527       -3.31364
H         -5.45141        4.68978       -3.48501
H         -3.86749        5.31511       -2.98230
H         -3.97138        4.08776       -4.26869
C          1.20934       -5.23491       -2.42602
C          0.64440       -5.37192       -3.86506
H          0.41937       -6.42658       -4.07006
H         -0.28303       -4.79767       -3.98870
H          1.37532       -5.02719       -4.60906
C          0.14707       -5.71547       -1.40431
H         -0.06762       -6.77790       -1.57622
H          0.50724       -5.59731       -0.37431
H         -0.79770       -5.16475       -1.50988
C          2.49238       -6.07903       -2.28549
H          2.25758       -7.13522       -2.46638
H          3.25397       -5.77381       -3.01594
H          2.91860       -5.99167       -1.27729
C         -0.99872        1.25108       -5.07675
H         -2.03680        0.90783       -5.01074
H         -0.92265        2.25111       -4.63049
H         -0.70703        1.31311       -6.13387
C         -0.06147       -1.48822       -5.15588
H          0.66733       -2.22564       -4.79797
H         -1.06408       -1.91470       -5.05097
H          0.13492       -1.28442       -6.21736
C          1.77989        0.64120       -4.68307
H          2.54675       -0.03020       -4.27854
H          1.86333        0.65195       -5.77819
H          1.97151        1.65270       -4.30581
C         -4.07680       -2.09672       -1.42523
C         -0.83485       -2.29374        0.86295
H         -0.48369       -1.32894        0.49997
H         -0.08532       -3.05531        0.65286
H         -1.00418       -2.23767        1.93724
H         -1.76622       -2.55305        0.36172
