63
DEDKII Fe oxo CH4, charge 1 mult 3 bond 57 59
Fe        -0.00000       -0.00000       -1.64365
N         -1.96928        0.06207       -1.68250
N         -4.02613        0.07285       -0.88413
C         -2.70597        0.08100       -0.57087
H         -2.30556        0.10045        0.43241
C         -2.84353        0.03765       -2.75567
H         -2.48807        0.07462       -3.77526
C         -4.12757        0.04847       -2.26735
H         -5.08604        0.05051       -2.76772
C         -5.13899        0.08742        0.06932
H         -4.73061        0.14191        1.08181
H         -5.73229       -0.82735       -0.03582
H         -5.77275        0.96144       -0.11398
N          0.07639        1.95939       -1.71603
N          0.74444        4.00342       -1.22791
C          0.97903        2.68017       -1.04948
H          1.76220        2.27964       -0.42286
C         -0.77888        2.84978       -2.34025
H         -1.57407        2.51329       -2.98872
C         -0.36705        4.12531       -2.04936
H         -0.74202        5.09004       -2.36056
C          1.52229        5.10470       -0.65463
H          2.33348        4.68486       -0.05404
H          0.87974        5.72091       -0.01670
H          1.94298        5.71817       -1.45839
S          0.06110        0.83085       -4.83700
O          0.04081       -0.17421       -3.66087
O          1.18343        1.78427       -4.72229
O         -1.27862        1.39068       -5.08710
C          0.44104       -0.26656       -6.21584
H         -0.35271       -1.01416       -6.31400
H          1.40716       -0.75036       -6.03846
H          0.48936        0.34233       -7.12448
N          1.96544       -0.11196       -1.67017
N          4.07369        0.12296       -2.26152
C          2.78566        0.40218       -2.58957
H          2.46966        0.97505       -3.45791
C          2.74795       -0.73799       -0.71796
H          2.30207       -1.21828        0.14072
C          4.06650       -0.60091       -1.07647
H          4.98075       -0.94324       -0.61177
C          5.25472        0.52367       -3.03224
H          4.92167        1.09701       -3.90114
H          5.91006        1.14596       -2.41332
H          5.80089       -0.36459       -3.36773
N         -0.10364       -1.97156       -1.66974
N         -0.17027       -4.07005       -2.34507
C         -0.03955       -2.77376       -2.73102
H          0.08825       -2.44107       -3.74946
C         -0.28336       -2.77450       -0.55996
H         -0.36135       -2.33785        0.42543
C         -0.32560       -4.08566       -0.96680
H         -0.44839       -5.00923       -0.41829
C         -0.15321       -5.23822       -3.23033
H         -0.01181       -4.89428       -4.25822
H          0.67121       -5.90376       -2.95305
H         -1.10409       -5.77640       -3.15506
O          0.00000        0.00000        0.00000
C         -0.83485        2.29374        0.86295
H         -0.48369        1.32894        0.49997
H         -0.08532        3.05531        0.65286
H         -1.76622        2.55305        0.36172
H         -1.00418        2.23767        1.93724
