58
DEDLUV Fe oxo CH4, charge 1 mult 3 bond 52 54
Fe         0.00000       -0.00000       -1.65326
N          0.93108        1.74250       -1.68121
N          2.04282        3.54267       -2.30715
C          1.50949        2.36136       -2.71191
H          1.56276        2.00010       -3.72842
C          1.09877        2.55291       -0.57376
H          0.71799        2.24784        0.39004
C          1.78916        3.67846       -0.95087
H          2.11811        4.54481       -0.39405
C          2.75429        4.49764       -3.16308
H          2.78373        4.09775       -4.17996
H          3.77656        4.63611       -2.79550
H          2.22808        5.45806       -3.16444
N          1.74752       -0.91327       -1.68623
N          3.52398       -2.06320       -2.30997
C          2.28612       -1.63677       -2.66871
H          1.82965       -1.85252       -3.62290
C          2.66764       -0.87478       -0.65575
H          2.44504       -0.34759        0.26040
C          3.78020       -1.58629       -1.03267
H          4.71158       -1.79362       -0.52438
C          4.42625       -2.86815       -3.13980
H          3.94742       -3.03950       -4.10724
H          4.62450       -3.82884       -2.65256
H          5.36683       -2.32890       -3.29274
N          0.00806       -0.01706       -3.62891
C          0.51766        0.03988       -4.71378
S          1.23271        0.12189       -6.16842
N         -0.92511       -1.73715       -1.68773
N         -1.72235       -3.66035       -0.95891
C         -1.03982       -2.53438       -0.62619
H         -0.65044       -2.31177        0.35682
C         -1.55712       -2.36527       -2.74404
H         -1.59462       -1.90896       -3.72205
C         -2.05796       -3.56582       -2.30175
H         -2.61211       -4.34536       -2.80595
C         -2.04811       -4.77033       -0.05819
H         -1.62504       -4.55599        0.92667
H         -3.13507       -4.87450        0.02702
H         -1.61721       -5.70013       -0.44424
N         -1.73223        0.93413       -1.69839
N         -3.57762        1.89480       -0.96459
C         -2.44140        1.23925       -0.61231
H         -2.15089        1.00184        0.40093
C         -2.43127        1.40840       -2.79192
H         -2.05158        1.27889       -3.79436
C         -3.58390        2.00864       -2.34684
H         -4.39197        2.49682       -2.87388
C         -4.60756        2.39315       -0.04849
H         -4.31405        2.14671        0.97527
H         -4.69964        3.47991       -0.14834
H         -5.56825        1.91888       -0.27549
O          0.00000        0.00000        0.00000
C          1.36496       -2.02364        0.86295
H          0.79082       -1.17245        0.49997
H          2.15500       -1.67274        1.52524
H          0.70741       -2.69903        1.40828
H          1.80661       -2.55034        0.01829
