59
DEVNEY Mn oxo CH4, charge 0 mult 3 bond 6 55
Mn         0.00000       -0.00000       -1.63743
Cl        -0.05288       -0.37872       -4.08455
O          0.36637        4.09962       -3.01879
O         -0.21754        1.78733       -2.00675
O          1.85481        0.09594       -1.74533
O          4.19796        1.05436       -1.17578
O          0.00000        0.00000        0.00000
N         -1.95275       -0.29264       -1.78732
N          0.03395       -1.97070       -1.56629
C          2.24037        5.52809       -3.30425
H          2.39467        5.56381       -2.21909
H          2.60532        6.46527       -3.74480
H          2.82199        4.69269       -3.71132
C          0.76336        5.34440       -3.62329
H          0.15448        6.16396       -3.20888
H          0.58757        5.29299       -4.70909
C         -0.90368        3.67044       -3.22050
C         -1.90381        4.37008       -3.89816
H         -1.69238        5.34664       -4.32636
C         -3.19340        3.81633       -4.04112
H         -3.95729        4.37868       -4.57398
C         -3.48552        2.56490       -3.51349
H         -4.47726        2.13073       -3.63408
C         -2.49066        1.82537       -2.83252
C         -1.18183        2.37497       -2.66272
C         -2.80959        0.51831       -2.32979
H         -3.84613        0.17981       -2.44227
C         -2.32253       -1.64367       -1.37079
H         -2.29995       -1.68493       -0.27279
H         -3.32544       -1.91090       -1.73238
C         -1.24886       -2.59323       -1.94811
H         -1.29441       -2.51950       -3.04374
C         -1.43789       -4.03960       -1.48887
H         -0.71057       -4.70934       -1.96465
H         -2.43840       -4.38200       -1.78247
H         -1.34754       -4.13257       -0.39764
C          1.04919       -2.62799       -1.09245
H          0.95810       -3.71043       -0.96569
C          2.31401       -2.05071       -0.72924
C          3.27708       -2.87350       -0.08940
H          3.00825       -3.89834        0.16511
C          4.53556       -2.37978        0.21316
H          5.26684       -3.00772        0.71794
C          4.88655       -1.05463       -0.13573
H          5.87948       -0.68518        0.10873
C          3.97315       -0.22897       -0.78627
C          2.65018       -0.70647       -1.09339
C          5.49137        1.61953       -0.90411
H          6.26853        1.01264       -1.39604
H          5.67656        1.60602        0.18217
C          5.46646        3.04168       -1.44723
H          5.27574        3.03295       -2.52706
H          6.43100        3.53231       -1.26140
H          4.67360        3.62064       -0.95863
C         -1.29351        2.07004        0.86295
H         -0.74942        1.19933        0.49997
H         -0.83257        2.97548        0.47097
H         -2.32879        2.01614        0.52949
H         -1.26325        2.08923        1.95135
