46
DOMLUN Fe oxo CH4, charge 1 mult 4 bond 3 42
Fe        -0.00000       -0.00000       -1.65030
Cl        -1.68080       -1.41978       -1.87576
Cl        -1.28030        1.83775       -1.85440
O          0.00000        0.00000        0.00000
N          1.44575       -1.37945       -1.68846
N          1.57970        1.26249       -1.64363
N          0.25083        0.10279       -3.77390
C          1.26975       -2.69389       -1.95008
H          0.24893       -3.01018       -2.14101
C          2.34456       -3.58326       -1.95535
H          2.16229       -4.63358       -2.16619
C          3.63011       -3.10279       -1.68488
H          4.48532       -3.77472       -1.68600
C          3.80144       -1.74257       -1.40315
H          4.78304       -1.33344       -1.17575
C          2.68643       -0.90382       -1.40070
C          2.72971        0.54882       -1.01155
H          2.59568        0.63090        0.07481
H          3.67896        1.02558       -1.28683
C          1.81377        1.81988       -3.01644
H          2.83101        2.22742       -3.08413
H          1.09294        2.63437       -3.14372
C          1.57701        0.72586       -4.04787
H          1.61775        1.13522       -5.06556
H          2.33299       -0.06586       -3.97206
C         -0.00237       -1.08355       -4.67565
H         -0.90768       -1.56799       -4.29813
H          0.84532       -1.76828       -4.55419
C         -0.16682       -0.63968       -6.10953
C          0.87887       -0.76947       -7.04068
H          1.81273       -1.24831       -6.74359
C          0.71680       -0.30855       -8.35248
H          1.52563       -0.42159       -9.07180
C         -0.49061        0.29157       -8.74029
H         -0.61684        0.64775       -9.76076
C         -1.53936        0.42341       -7.81722
H         -2.48111        0.87591       -8.12106
C         -1.37913       -0.04092       -6.50852
H         -2.20189        0.04322       -5.79682
H          1.26738        2.01704       -1.02120
H         -0.48130        0.79668       -3.98686
C         -2.42758        0.25515        0.86295
H         -1.40648        0.14783        0.49997
H         -3.09521        0.43323        0.02124
H         -2.72756       -0.65644        1.37767
H         -2.48107        1.09597        1.55292
