51
DOMNAV Fe oxo CH4, charge 1 mult 3 bond 2 47
Fe         0.00000       -0.00000       -1.63943
Cl         1.87288       -1.30186       -1.85255
O          0.00000        0.00000        0.00000
N         -0.09325        0.22910       -3.72228
N         -1.11761       -1.60907       -2.06237
N         -1.53585        1.23932       -1.69649
N          1.14584        1.57382       -1.76135
C          1.14521        0.97454       -4.10248
H          1.03625        1.46335       -5.08062
H          1.95388        0.23432       -4.16111
C          1.50566        1.95471       -3.01378
C          2.25041        3.11538       -3.22691
H          2.52201        3.40428       -4.23967
C          2.65334        3.87794       -2.12434
H          3.23969        4.78258       -2.26864
C          2.29970        3.45532       -0.83802
H          2.60576        4.01017        0.04477
C          1.53716        2.29655       -0.69147
H          1.22384        1.90024        0.27004
C         -1.35015        0.95654       -4.09111
H         -2.07644        0.20859       -4.43750
H         -1.16524        1.64271       -4.92841
C         -1.94471        1.67784       -2.90959
C         -2.90557        2.68450       -3.03711
H         -3.20700        3.02124       -4.02666
C         -3.46801        3.23904       -1.88329
H         -4.21812        4.02296       -1.95954
C         -3.04493        2.77246       -0.63242
H         -3.45241        3.17669        0.29045
C         -2.06954        1.77895       -0.57617
H         -1.66580        1.38784        0.35393
C         -0.13409       -1.16542       -4.25404
H          0.87923       -1.57732       -4.17599
H         -0.45679       -1.18589       -5.30517
C         -1.05255       -1.97909       -3.37628
C         -1.74190       -3.08003       -3.87818
H         -1.66684       -3.32514       -4.93500
C         -2.50220       -3.85717       -2.99997
H         -3.04347       -4.73072       -3.35632
C         -2.55411       -3.48555       -1.65873
H         -3.13385       -4.06436       -0.94454
C         -1.86330       -2.35196       -1.19622
C         -1.94333       -1.96988        0.25422
H         -0.94657       -1.96335        0.70914
H         -2.58474       -2.67986        0.78688
H         -2.35984       -0.96259        0.37283
C          2.15523       -1.14596        0.86295
H          1.24869       -0.66394        0.49997
H          2.41691       -0.73918        1.83864
H          1.98624       -2.21822        0.95016
H          2.96909       -0.96249        0.16303
