45
DURXEV Fe oxo CH4, charge 1 mult 3 bond 3 41
Fe         0.00000        0.00000       -1.65642
S          0.39069       -2.25118       -5.48505
N          0.03512       -0.14197       -3.64076
O          0.00000        0.00000        0.00000
N          1.23038        1.52050       -1.74955
N         -2.07078        2.20091       -1.82402
N          1.70239       -1.00450       -1.70714
N         -1.70207        0.95103       -1.77099
N         -3.42489        2.17362       -1.88946
C          0.18313       -1.04152       -4.42808
N         -1.18992       -1.57184       -1.71302
N          1.09993        2.81784       -1.78083
N          2.36469        3.30596       -1.80504
C          2.55195        1.14600       -1.74933
C         -2.78393        0.10364       -1.79696
C         -3.91254        0.90251       -1.87579
H         -4.96962        0.68128       -1.92382
C          2.77502       -0.27844       -1.72683
H          3.77445       -0.71575       -1.74878
C         -2.45613       -1.30037       -1.75920
H         -3.21859       -2.08025       -1.79218
C          3.29646        2.31325       -1.78715
H          4.35957        2.50853       -1.80301
C         -0.71452       -2.95977       -1.75526
H         -1.48570       -3.61601       -1.32996
H         -0.58422       -3.22039       -2.81829
C         -4.16147        3.44129       -1.98480
H         -3.43126        4.24204       -1.85703
H         -4.91355        3.48227       -1.19160
H         -4.63692        3.51430       -2.96786
C          1.78196       -2.46809       -1.76646
H          2.74876       -2.79259       -1.35851
H          1.74271       -2.74850       -2.83151
C          2.56820        4.75967       -1.86765
H          1.58963        5.22263       -1.73003
H          2.98181        5.02957       -2.84433
H          3.24829        5.06305       -1.06660
C          0.61806       -3.12619       -1.01540
H          0.82942       -4.20116       -0.94839
H          0.54513       -2.73043        0.00552
C         -0.59052        2.36844        0.86295
H         -0.34213        1.37222        0.49997
H          0.27329        3.02186        0.74976
H         -1.42490        2.76684        0.28762
H         -0.86833        2.31287        1.91444
