40
EBEYER Co oxo CH4, charge 1 mult 4 bond 20 36
Co         0.00000       -0.00000       -1.62485
S         -0.29000       -3.88974       -3.33217
O          0.25608        0.01263       -3.60643
N         -1.22858       -1.62194       -1.92793
N          1.68164       -1.09280       -1.75901
N          1.41419       -0.86880       -5.34248
C         -0.83578       -2.60217       -2.51108
C          2.08564       -1.37158       -3.02478
C          3.19835       -2.17662       -3.27818
C          3.89031       -2.72461       -2.19257
C          3.44739       -2.45220       -0.89364
C          2.33452       -1.62394       -0.71314
C          1.19977       -0.72142       -4.02727
H          3.52144       -2.38703       -4.29466
H          4.75550       -3.36107       -2.36108
H          3.95300       -2.86836       -0.02652
H          1.93961       -1.36585        0.26607
H          2.04678       -1.57275       -5.70647
H          0.72691       -0.48346       -5.98525
O          1.03075        1.88773       -1.75846
O          0.00000        0.00000        0.00000
N         -1.55781        1.29344       -1.77597
N          0.68665        4.12637       -1.71014
C         -1.24276        2.60842       -1.83277
C         -2.23486        3.58414       -1.96329
C         -3.57594        3.18021       -2.01499
C         -3.88250        1.81899       -1.93840
C         -2.83776        0.89305       -1.82229
C          0.23609        2.85844       -1.75890
H         -1.98580        4.63992       -2.03719
H         -4.36486        3.92214       -2.11457
H         -4.91066        1.46862       -1.97095
H         -2.98652       -0.18293       -1.76999
H          0.07717        4.92998       -1.61287
H          1.68816        4.27760       -1.62594
C         -1.81398       -1.63332        0.86295
H         -1.05097       -0.94630        0.49997
H         -1.79761       -2.54304        0.26457
H         -1.61415       -1.88032        1.90457
H         -2.79318       -1.16360        0.78268
