62
EBOROC Fe oxo CH4, charge 2 mult 3 bond 6 58
Fe         0.00000       -0.00000       -1.64278
N         -0.04541        0.09529       -3.70390
N          1.73113        0.87551       -1.89668
N         -0.84916        1.73435       -1.72768
N         -1.74705       -0.83963       -1.90389
N          0.87509       -1.76442       -1.67034
O          0.00000        0.00000        0.00000
C          1.38926        0.03522       -4.13504
H          1.50483        0.37880       -5.17091
H          1.70214       -1.01647       -4.09253
C          2.22084        0.84696       -3.16611
C          3.43502        1.46561       -3.50625
C          4.12658        2.12328       -2.47178
H          5.07131        2.61640       -2.69256
C          3.61576        2.14259       -1.17074
H          4.14666        2.64095       -0.36401
C          2.40376        1.50497       -0.91008
H          1.94628        1.46670        0.07392
C          3.98339        1.41368       -4.91502
H          3.29338        1.87640       -5.63473
H          4.16116        0.37939       -5.24057
H          4.93547        1.95005       -4.97663
C         -0.69483        1.38655       -4.13122
H         -0.00503        1.93347       -4.78796
H         -1.58122        1.15257       -4.73621
C         -1.08823        2.24739       -2.95800
C         -1.67975        3.51130       -3.13720
C         -2.01807        4.23160       -1.98062
H         -2.47673        5.21383       -2.07678
C         -1.76858        3.69282       -0.71428
H         -2.02372        4.23618        0.19149
C         -1.17930        2.43605       -0.61703
H         -0.95148        1.95326        0.32844
C         -1.93429        4.05951       -4.52210
H         -0.99845        4.16820       -5.08958
H         -2.40609        5.04532       -4.46740
H         -2.59793        3.40128       -5.10057
C         -0.86047       -1.08840       -4.13425
H         -0.21332       -1.97282       -4.07015
H         -1.18941       -0.98416       -5.17621
C         -2.02125       -1.23966       -3.17596
C         -3.26298       -1.79472       -3.52636
C         -4.21693       -1.92174       -2.49894
H         -5.19310       -2.34493       -2.72835
C         -3.92114       -1.51505       -1.19498
H         -4.64838       -1.61588       -0.39379
C         -2.66648       -0.97062       -0.92432
H         -2.35785       -0.63622        0.06144
C         -3.55945       -2.25100       -4.93755
H         -3.45958       -1.42765       -5.65912
H         -4.58249       -2.63336       -5.01110
H         -2.87870       -3.05410       -5.25163
C          1.36353       -2.78928       -1.40635
C          1.97333       -4.06722       -1.05852
H          1.33431       -4.89279       -1.39544
H          2.96074       -4.15480       -1.52858
H          2.08775       -4.12320        0.03194
C          0.99282       -2.22992        0.86295
H          0.57522       -1.29196        0.49997
H          1.93228       -2.03391        1.37767
H          0.29139       -2.69666        1.55292
H          1.17241       -2.89714        0.02124
