62
ELUXUG Co oxo CH4, charge 2 mult 2 bond 30 58
C          0.08281       -2.83468       -2.39076
C         -0.31007       -4.17662       -2.35628
H          0.26490       -4.92452       -2.89627
C         -1.39340       -4.53454       -1.55286
H         -1.70345       -5.57414       -1.48137
C         -2.06680       -3.54924       -0.83391
H         -2.92366       -3.79076       -0.21043
C         -1.65641       -2.21620       -0.97037
C         -2.76955       -0.03219       -0.97995
C         -4.09273        0.41321       -0.85987
H         -4.79611       -0.13974       -0.24282
C         -4.49170        1.53202       -1.58821
H         -5.51798        1.88619       -1.53059
C         -3.55971        2.20034       -2.38290
H         -3.82559        3.10171       -2.92914
C         -2.24027        1.73597       -2.40095
C         -1.03362       -0.53178       -4.49831
H         -1.84198       -0.94710       -3.90258
C         -1.07090       -0.55133       -5.89197
H         -1.92446       -0.99111       -6.40183
C         -0.00000       -0.00000       -6.60641
H         -0.00000       -0.00000       -7.69415
Co        -0.00000       -0.00000       -1.76166
N         -0.59726       -1.85556       -1.74048
N         -2.38047       -1.20702       -0.34216
H         -3.06859       -1.55492        0.32197
N         -1.85020        0.61393       -1.74336
N         -1.24991        2.46447       -3.07287
H         -1.63896        3.23354       -3.61541
N         -0.00000       -0.00000       -3.80743
O          0.00000        0.00000        0.00000
C         -0.08281        2.83468       -2.39076
C          0.31007        4.17662       -2.35628
H         -0.26490        4.92452       -2.89628
C          1.39340        4.53454       -1.55286
H          1.70345        5.57414       -1.48137
C          2.06680        3.54924       -0.83391
H          2.92366        3.79076       -0.21043
C          1.65641        2.21620       -0.97037
C          2.76955        0.03219       -0.97995
C          4.09273       -0.41321       -0.85987
H          4.79611        0.13974       -0.24282
C          4.49170       -1.53202       -1.58820
H          5.51798       -1.88620       -1.53059
C          3.55971       -2.20034       -2.38290
H          3.82559       -3.10171       -2.92914
C          2.24027       -1.73597       -2.40095
N          0.59726        1.85555       -1.74048
N          2.38047        1.20702       -0.34216
H          3.06859        1.55492        0.32197
N          1.85020       -0.61393       -1.74336
N          1.24991       -2.46447       -3.07287
H          1.63896       -3.23354       -3.61541
C          1.03362        0.53178       -4.49831
H          1.84198        0.94710       -3.90258
C          1.07090        0.55133       -5.89197
H          1.92446        0.99111       -6.40183
C         -1.14596        2.15523        0.86295
H         -0.66394        1.24869        0.49997
H         -0.58163        3.02486        0.52949
H         -2.16055        2.20876        0.47098
H         -1.17771        2.13861        1.95135
