112
EMULUT Fe oxo CH4, charge 1 mult 3 bond 105 108
Fe        -0.00000        0.00000       -1.69587
P         -1.68934        1.51446       -1.71418
P         -1.60744       -1.55316       -2.15149
P          1.68216       -1.52253       -1.72058
P          1.60297        1.55314       -2.14877
C         -1.60807        2.79834       -0.42751
C         -1.74438        2.41679        0.92297
H         -1.92645        1.37577        1.18010
C         -1.61124        3.36861        1.93836
H         -1.73120        3.06775        2.97780
C         -1.31725        4.70215        1.62134
H         -1.20908        5.43980        2.41457
C         -1.16430        5.08468        0.28311
H         -0.93503        6.11881        0.03255
C         -1.31285        4.13972       -0.73777
H         -1.21388        4.44624       -1.77671
C         -2.20955        2.36016       -3.24724
C         -3.22988        3.33454       -3.20954
H         -3.65382        3.64275       -2.25445
C         -3.69252        3.91266       -4.39560
H         -4.47719        4.66631       -4.35944
C         -3.15054        3.51896       -5.62820
H         -3.51365        3.97127       -6.54951
C         -2.14556        2.54527       -5.67257
H         -1.71655        2.24260       -6.62581
C         -1.67660        1.96872       -4.48653
H         -0.88132        1.22718       -4.50637
C         -2.01054       -2.76060       -0.83887
C         -2.87557       -3.84539       -1.10264
H         -3.25819       -4.00930       -2.10938
C         -3.23907       -4.71681       -0.07207
H         -3.90160       -5.55507       -0.28141
C         -2.75641       -4.50701        1.22858
H         -3.04126       -5.18816        2.02891
C         -1.91679       -3.42010        1.49712
H         -1.54404       -3.25292        2.50576
C         -1.54120       -2.54681        0.46869
H         -0.88683       -1.69863        0.66216
C         -1.46272       -2.53314       -3.68634
C         -1.71562       -1.91744       -4.92860
H         -2.04554       -0.88042       -4.97036
C         -1.53520       -2.62672       -6.11981
H         -1.75098       -2.14519       -7.07234
C         -1.08255       -3.95378       -6.08855
H         -0.94195       -4.50401       -7.01708
C         -0.81404       -4.56839       -4.86010
H         -0.45878       -5.59670       -4.82827
C         -1.00298       -3.86335       -3.66608
H         -0.80866       -4.35228       -2.71444
C          2.17886       -2.37950       -3.25626
C          3.18140       -3.37237       -3.22410
H          3.60350       -3.68998       -2.27132
C          3.63052       -3.95581       -4.41286
H          4.40094       -4.72428       -4.38035
C          3.09488       -3.54762       -5.64339
H          3.44804       -4.00372       -6.56672
C          2.10975       -2.55367       -5.68283
H          1.68592       -2.23867       -6.63432
C          1.65257       -1.97340       -4.49412
H          0.87016       -1.21775       -4.51189
C          1.61645       -2.79351       -0.42120
C          1.77830       -2.39916        0.92273
H          1.97078       -1.35681        1.16640
C          1.66167       -3.34095        1.94943
H          1.80137       -3.03068        2.98364
C          1.36098       -4.67730        1.65048
H          1.26692       -5.40715        2.45269
C          1.18202       -5.07239        0.31916
H          0.94553       -6.10818        0.08245
C          1.31179       -4.13699       -0.71286
H          1.18942       -4.45208       -1.74667
C          2.03631        2.74218       -0.83015
C          1.56917        2.52929        0.47818
H          0.90286        1.68980        0.66875
C          1.96327        3.39129        1.50921
H          1.59241        3.22534        2.51878
C          2.82033        4.46499        1.24223
H          3.12067        5.13704        2.04460
C          3.30075        4.67349       -0.05952
H          3.97587        5.50193       -0.26757
C          2.91733        3.81419       -1.09296
H          3.29525        3.97840       -2.10142
C          1.44318        2.55581       -3.66885
C          1.00061        3.89142       -3.62569
H          0.82834        4.37310       -2.66615
C          0.80065        4.61173       -4.80905
H          0.45881        5.64396       -4.76053
C          1.04420        4.00933       -6.04857
H          0.89603        4.57234       -6.96822
C          1.48157        2.67793       -6.10246
H          1.67737        2.20520       -7.06367
C          1.67009        1.95240       -4.92241
H          1.98307        0.91082       -4.98189
C         -3.20814        0.51467       -1.31608
H         -3.11542        0.12943       -0.29127
H         -4.10913        1.13895       -1.37988
C         -3.23047       -0.64174       -2.32760
H         -3.32401       -0.24698       -3.34828
H         -4.05974       -1.33763       -2.14778
C          3.21226       -0.52530       -1.35741
H          3.14773       -0.14070       -0.33019
H          4.10935       -1.15227       -1.44537
C          3.21346        0.63248       -2.36771
H          3.27420        0.23927       -3.39157
H          4.05287        1.32170       -2.21003
O          0.00000        0.00000        0.00000
H          0.01820        0.00582       -3.28079
C         -2.43500       -0.17027        0.86295
H         -1.41078       -0.09865        0.49997
H         -3.11197       -0.28941        0.01829
H         -2.52614       -1.02991        1.52524
H         -2.69113        0.73688        1.40829
