60
EPEKIU Mn oxo CH4, charge 1 mult 4 bond 6 56
Mn        -0.00000       -0.00000       -1.66391
Cl        -0.89445        2.07025       -1.98255
N          0.66933       -1.90240       -1.70310
N         -1.75308       -0.97917       -1.78544
N          1.80919        0.82278       -1.77572
N          0.34582       -0.00923       -3.76973
O          0.00000        0.00000        0.00000
C          1.96189       -2.27705       -1.63512
C          2.35244       -3.61283       -1.64767
C          1.38094       -4.62700       -1.73065
C          0.04091       -4.22073       -1.79751
C         -0.29388       -2.86171       -1.77613
C         -1.66797       -2.34022       -1.80842
C         -2.81720       -3.13657       -1.84275
C         -4.09114       -2.54820       -1.83436
C         -4.14605       -1.14390       -1.79455
C         -2.97082       -0.39603       -1.76833
C          1.76380       -6.08567       -1.72090
C         -5.34523       -3.38582       -1.83844
C          2.44919        1.25770       -0.66985
C          3.66552        1.93001       -0.74921
C          4.24967        2.17721       -2.00529
C          3.56282        1.71699       -3.14095
C          2.34054        1.05086       -3.00995
C          1.51828        0.57135       -4.13711
C          1.87182        0.71478       -5.48457
C          1.00843        0.26466       -6.49405
C         -0.19986       -0.33058       -6.08772
C         -0.48907       -0.44511       -4.72963
C          5.54411        2.94025       -2.13126
C          1.34887        0.42957       -7.95449
H          2.68703       -1.47346       -1.56073
H          3.41044       -3.85833       -1.58783
H         -0.74406       -4.97017       -1.85872
H         -2.72681       -4.21972       -1.86446
H         -5.10117       -0.62369       -1.77914
H         -2.96784        0.68958       -1.73289
H          0.93193       -6.72220       -2.04219
H          2.05362       -6.39358       -0.70579
H          2.62344       -6.27235       -2.37678
H         -6.10047       -2.96207       -2.51191
H         -5.78401       -3.41119       -0.83035
H         -5.14001       -4.41818       -2.14332
H          1.92603        1.04731        0.26041
H          4.14847        2.26708        0.16513
H          3.98172        1.89506       -4.12806
H          2.81289        1.18577       -5.75764
H         -0.91448       -0.69578       -6.82234
H         -1.42040       -0.88586       -4.38396
H          6.22664        2.70440       -1.30602
H          5.34419        4.02136       -2.09314
H          6.04861        2.72672       -3.08055
H          0.67638        1.16285       -8.42167
H          1.22446       -0.51759       -8.49563
H          2.37897        0.77663       -8.09164
C         -1.36496        2.02364        0.86295
H         -0.79082        1.17245        0.49997
H         -0.95768        2.94200        0.44264
H         -2.40527        1.91572        0.55960
H         -1.30607        2.06440        1.94959
