56
ESAHOV Fe oxo CH4, charge 0 mult 4 bond 33 52
Fe         0.00000       -0.00000       -1.64501
N          2.01114       -0.49719       -1.64244
O         -0.32478       -1.80396       -1.80067
O          0.93963       -7.09015        1.25273
O          0.37796        1.85420       -1.75126
C          0.13852       -2.75985       -1.00492
O          4.49962        5.40287       -4.83244
C          3.57773        3.70007       -3.55655
N          1.68266       -6.10301        1.10341
C          2.71073        1.89001       -2.22799
C          1.13781       -4.94702        0.38569
C          1.40598        2.45303       -2.32044
N          4.70928        4.33356       -4.22952
C          2.86991        0.70959       -1.32496
H          3.91736        0.37321       -1.30440
H          2.56774        0.99397       -0.30843
O          5.81526        3.76019       -4.16362
O          2.85587       -6.02547        1.51612
C          3.78978        2.50704       -2.85440
H          4.79668        2.10002       -2.79802
C          1.22794        3.68348       -3.00801
H          0.23235        4.11910       -3.04097
C          1.94529       -3.81884        0.21891
H          2.94999       -3.83013        0.63469
C          2.31168        4.30323       -3.61955
H          2.20175        5.23953       -4.15905
C          1.44870       -2.70604       -0.46081
C          2.28581       -1.45652       -0.51629
H          2.12024       -0.87636        0.39983
H          3.35266       -1.72576       -0.56756
C         -0.17054       -5.00519       -0.11647
H         -0.76455       -5.89949        0.04610
Cl        -2.21349        0.44412       -1.92497
O          0.00000        0.00000        0.00000
N          0.20462       -0.17282       -3.87869
C          2.32080       -1.11517       -2.97432
H          3.41279       -1.14677       -3.10919
H          1.94934       -2.14483       -2.93780
C         -0.53632       -1.36518       -4.38902
H         -1.56678       -1.31604       -4.02656
H         -0.07453       -2.28359       -4.02419
H         -0.51788       -1.35202       -5.49018
C          1.66878       -0.33962       -4.11914
H          1.84545       -0.87670       -5.06535
H          2.11605        0.65291       -4.20946
C         -0.31516        1.01047       -4.62158
H         -0.20530        0.84714       -5.70555
H          0.23848        1.90511       -4.33571
H         -1.37024        1.13632       -4.36368
C         -0.66552       -3.91235       -0.81435
H         -1.66802       -3.91050       -1.23410
C         -2.19391        1.07004        0.86295
H         -1.27110        0.61996        0.49997
H         -2.58067        1.75944        0.11390
H         -2.92905        0.28905        1.05147
H         -1.99484        1.61172        1.78645
