62
FEWRIK Fe oxo CH4, charge 2 mult 3 bond 50 58
C         -2.11082        0.93638       -3.38409
H         -2.44641        1.95965       -3.19610
H         -2.89766        0.43087       -3.95457
C         -0.78003        0.93675       -4.15177
H         -0.95463        0.94457       -5.23855
H         -0.15975        1.79728       -3.88882
C         -0.94341       -1.47805       -4.14821
H         -0.29791       -2.25767       -4.56485
H         -1.60824       -1.14777       -4.95762
C         -1.76735       -2.13435       -2.99849
C         -2.61101       -1.13930       -2.13275
H         -3.61999       -1.02974       -2.55561
H         -2.70356       -1.53171       -1.11425
C         -2.73967       -3.13884       -3.65162
H         -2.20585       -3.88840       -4.24840
H         -3.43181       -2.60834       -4.31694
H         -3.33756       -3.65999       -2.89371
C         -0.74467       -2.81250       -2.10277
C          1.12246       -2.48723       -0.71873
H          1.78607       -1.76679       -0.25559
C          1.23243       -3.85048       -0.46225
H          2.01755       -4.21133        0.19656
C          0.30792       -4.72092       -1.04926
H          0.35393       -5.79128       -0.86187
C         -0.68906       -4.19269       -1.87558
H         -1.42350       -4.84796       -2.33270
C         -2.45879        1.08337       -0.94164
H         -2.38645        0.52443       -0.00152
H         -3.50186        1.38643       -1.11009
C         -1.51928        2.26982       -0.94377
C          0.61779        3.00114       -1.57131
H          1.57441        2.74432       -2.01589
C          0.34676        4.29421       -1.12262
H          1.10521        5.06657       -1.21856
C         -0.90380        4.56651       -0.55611
H         -1.14141        5.56315       -0.19158
C         -1.85478        3.54040       -0.47853
H         -2.84331        3.72224       -0.06336
C          1.32960       -0.41055       -4.23465
H          1.43527        0.06529       -5.21924
H          1.55886       -1.47648       -4.35956
C          2.31704        0.15631       -3.23634
C          2.76709        0.60351       -0.96619
H          2.34862        0.63727        0.03664
C          4.08677        0.94402       -1.25554
H          4.75458        1.23917       -0.45049
C          4.51886        0.91019       -2.58876
H          5.53893        1.18494       -2.84732
C          3.62103        0.51663       -3.58863
H          3.92917        0.47556       -4.63100
O          0.00000        0.00000        0.00000
Fe        -0.00000        0.00000       -1.64365
N         -1.96884        0.19859       -2.04793
N         -0.07636       -0.30815       -3.73321
N          0.16262       -1.98082       -1.53102
N         -0.29236        2.00716       -1.47821
N          1.90499        0.21508       -1.94027
C         -1.36496       -2.02364        0.86295
H         -0.79082       -1.17245        0.49997
H         -0.95768       -2.94200        0.44264
H         -1.30607       -2.06440        1.94959
H         -2.40527       -1.91572        0.55960
