56
GIBDUS Mn oxo CH4, charge 0 mult 3 bond 7 52
Mn        -0.00000        0.00000       -1.63742
O          1.36205        1.27470       -1.76780
O          6.34354       -0.86460        0.97076
H          6.76178       -1.68645        1.29007
O         -1.37624        1.20893       -1.94186
O         -3.85810       -2.61246       -4.76608
H         -3.40770       -2.15600       -5.50579
O          0.00000        0.00000        0.00000
N          1.34633       -1.44999       -1.57112
N          4.38098        2.45257       -0.26044
N         -1.25362       -1.52141       -1.82150
N         -4.14352        2.07442       -4.03477
N          0.13513       -0.22700       -3.69685
N          0.54933        0.74261       -4.31190
N          0.93796        1.65641       -4.92560
C          2.50796        1.19461       -1.13358
C          3.20486        2.42551       -0.88029
C          2.57253        3.71666       -1.32379
H          3.24726        4.54825       -1.09810
H          1.61099        3.87202       -0.81359
H          2.35506        3.68976       -2.40107
C          4.95632        1.28351        0.13048
H          5.91226        1.36787        0.63926
C          4.39620        0.03319       -0.09139
C          5.10281       -1.22585        0.36823
H          4.45778       -1.77095        1.08284
H          5.27147       -1.89756       -0.49651
C          3.12907       -0.03145       -0.74350
C          2.54746       -1.29917       -1.09903
H          3.16413       -2.19836       -0.99633
C          0.79381       -2.74724       -1.95710
H          1.40835       -3.57365       -1.57337
H          0.75327       -2.78616       -3.05365
C         -2.41999        1.00113       -2.71033
C         -3.06289        2.16438       -3.26191
C         -2.47158        3.51821       -2.98080
H         -3.07291        4.28780       -3.47416
H         -1.43523        3.56401       -3.34512
H         -2.43340        3.71040       -1.89938
C         -4.65494        0.84636       -4.30235
H         -5.53746        0.83491       -4.94415
C         -4.12734       -0.34756       -3.82439
C         -4.77872       -1.66373       -4.19309
H         -5.17850       -2.17296       -3.30575
H         -5.62446       -1.47144       -4.87312
C         -2.95996       -0.28362       -3.00908
C         -2.37024       -1.49164       -2.48357
H         -2.87910       -2.43595       -2.68798
C         -0.64043       -2.77951       -1.39243
H         -1.20304       -3.64745       -1.76204
H         -0.60762       -2.78972       -0.29540
C         -2.11393        1.22048        0.86295
H         -1.22475        0.70711        0.49997
H         -2.41030        1.98436        0.14562
H         -2.92367        0.50243        0.98394
H         -1.89697        1.68799        1.82226
