69
GOGRUQ Co oxo CH4, charge 1 mult 3 bond 6 65
Co        -0.00000        0.00000       -1.65849
O         -0.93642        1.65789       -1.76959
O          1.47446        1.21761       -1.71164
N         -1.64136       -1.04710       -1.73097
N          1.12551       -1.54965       -1.89582
N         -0.02835        0.09890       -3.74180
O          0.00000        0.00000        0.00000
C         -2.05786        1.81970       -2.40425
C         -2.91520        0.76689       -2.74501
H         -3.85374        1.00628       -3.23151
C         -2.76082       -0.55031       -2.26629
C         -3.99107       -1.44190       -2.33649
H         -4.36949       -1.66176       -1.32841
H         -3.76533       -2.40113       -2.82195
H         -4.78653       -0.94346       -2.89704
C         -1.75753       -2.26101       -0.89790
H         -2.43354       -2.05785       -0.05426
H         -2.21469       -3.05488       -1.50902
C         -0.41892       -2.77111       -0.37670
H         -0.58280       -3.77363        0.04089
H         -0.03677       -2.13660        0.43210
C          0.62234       -2.87204       -1.48579
H          1.46727       -3.46848       -1.12067
H          0.19635       -3.40259       -2.35639
C          2.32155       -1.46798       -2.48577
C          3.03427       -2.75395       -2.87501
H          2.35853       -3.45415       -3.38223
H          3.43537       -3.26065       -1.98528
H          3.87360       -2.53016       -3.53962
C          2.99881       -0.26610       -2.77289
H          3.93036       -0.34428       -3.32135
C          2.60803        0.99358       -2.30002
C         -2.37140        3.23253       -2.72567
C         -3.28299        3.57701       -3.74492
H         -3.77700        2.80246       -4.32786
C         -3.53263        4.92031       -4.03719
H         -4.23226        5.17860       -4.82980
C         -2.88369        5.93138       -3.31376
H         -3.08770        6.97667       -3.53838
C         -1.97345        5.59508       -2.30076
H         -1.47428        6.37866       -1.73376
C         -1.71062        4.25474       -2.01130
H         -1.01312        3.98054       -1.22355
C          3.45718        2.19713       -2.45816
C          4.84001        2.10661       -2.72140
H          5.32766        1.13565       -2.77389
C          5.60116        3.26726       -2.87746
H          6.66876        3.18974       -3.07333
C          4.99462        4.52740       -2.77012
H          5.59168        5.42935       -2.89134
C          3.62238        4.62496       -2.49581
H          3.15294        5.60271       -2.40439
C          2.85712        3.46889       -2.33412
H          1.79544        3.53106       -2.10688
C         -0.31307       -0.98898       -4.48535
H         -0.55040       -1.89139       -3.92998
C         -0.31539       -0.95419       -5.87904
H         -0.55353       -1.85396       -6.44084
C         -0.00950        0.25040       -6.52508
H         -0.00155        0.30870       -7.61150
C          0.28317        1.37663       -5.74873
H          0.52445        2.33372       -6.20383
C          0.26279        1.26353       -4.35821
H          0.46946        2.10403       -3.70306
C          0.99282        2.22992        0.86295
H          0.57522        1.29196        0.49997
H          1.93228        2.03391        1.37767
H          1.17241        2.89714        0.02124
H          0.29139        2.69666        1.55292
