49
IGEVEW Co oxo CH4, charge 2 mult 3 bond 43 45
Co         0.00000       -0.00000       -1.65305
N          0.03381        0.25010       -3.64756
C          0.74330       -0.50346       -4.52881
H          1.33585       -1.30904       -4.10821
C          0.70230       -0.26504       -5.89965
H          1.27868       -0.89577       -6.57125
C         -0.09132        0.78501       -6.38296
H         -0.14555        0.99322       -7.44911
C         -0.82089        1.55926       -5.47533
H         -1.45330        2.37553       -5.81741
C         -0.74480        1.26554       -4.11120
C         -1.56328        2.00412       -3.08268
H         -1.45800        3.08852       -3.20850
H         -2.62640        1.76331       -3.21124
N         -1.15629        1.62901       -1.68226
H         -1.97784        1.25298       -1.19184
C         -0.62227        2.78172       -0.88063
H         -0.61703        2.46163        0.16766
H         -1.33837        3.60869       -0.98396
C          0.77372        3.21699       -1.32985
H          0.98897        4.18274       -0.85458
H          0.80877        3.40033       -2.41496
N          1.09247       -1.63899       -1.70087
C          0.59775       -2.87993       -1.90767
H         -0.47885       -2.95357       -2.02346
C          1.44343       -3.98962       -1.94172
H          1.01817       -4.97627       -2.10565
C          2.81932       -3.80462       -1.75800
H          3.49970       -4.65289       -1.78578
C          3.31283       -2.51489       -1.51968
H          4.37267       -2.34066       -1.34845
C          2.41859       -1.44368       -1.47784
C          2.80582       -0.04422       -1.08125
H          2.76784        0.03708        0.01351
H          3.81976        0.21649       -1.40990
N          1.81464        0.93773       -1.62746
H          2.01769        1.09918       -2.62163
C          1.87503        2.24620       -0.89910
H          2.86572        2.68634       -1.08092
H          1.78640        2.01679        0.16873
N         -1.66369       -1.03116       -1.79864
N         -2.23724       -1.05594       -2.89499
N         -2.85114       -1.14653       -3.87665
O          0.00000        0.00000        0.00000
C         -1.86988       -1.56901        0.86295
H         -1.08336       -0.90905        0.49997
H         -1.90866       -2.46307        0.24240
H         -1.65999       -1.85129        1.89357
H         -2.82751       -1.05264        0.81585
