49
OCINIX Mn oxo CH4, charge 2 mult 2 bond 1 45
Mn        -0.00000        0.00000       -1.59562
O          0.00000        0.00000        0.00000
N         -0.71655       -1.87929       -1.62236
N          1.95985       -1.80707       -2.82553
H          2.80124       -1.83874       -3.41116
N          1.77574       -0.57304       -2.25394
N          1.01281        1.79802       -1.57985
N          0.22716       -1.13699       -4.39330
H         -0.27379       -1.45619       -5.22979
N         -0.46550       -0.22945       -3.64323
N         -1.71851        0.96054       -1.77292
C          0.75194       -2.24372       -3.54260
H          1.06130       -3.04413       -4.21834
C         -0.27673       -2.76341       -2.55381
C         -0.73624       -4.07970       -2.59386
H         -0.35894       -4.76479       -3.34968
C         -1.66936       -4.50403       -1.63829
H         -2.03642       -5.52762       -1.64532
C         -2.10849       -3.59244       -0.67260
H         -2.82266       -3.87988        0.09439
C         -1.61081       -2.28901       -0.69293
H         -1.90043       -1.54857        0.04536
C          2.74553        0.29156       -2.12572
H          3.77192        0.04660       -2.40215
C          2.36718        1.61531       -1.68456
C          3.28522        2.64544       -1.44886
H          4.35190        2.45384       -1.53710
C          2.79903        3.91019       -1.09343
H          3.48703        4.72985       -0.90120
C          1.41734        4.09590       -0.99149
H          0.99575        5.06203       -0.72736
C          0.55866        3.01358       -1.23397
H         -0.51715        3.12655       -1.15111
C         -1.48440        0.45599       -4.07681
H         -1.84412        0.41294       -5.10588
C         -2.19209        1.18401       -3.04414
C         -3.32407        1.97836       -3.27488
H         -3.66646        2.13980       -4.29420
C         -3.99716        2.53982       -2.18558
H         -4.87963        3.15531       -2.34251
C         -3.52245        2.28634       -0.89116
H         -4.02747        2.68441       -0.01489
C         -2.37919        1.50169       -0.72020
H         -1.96175        1.28631        0.25959
C          2.11393       -1.22048        0.86295
H          1.22475       -0.70711        0.49997
H          2.41033       -0.79883        1.82226
H          1.89696       -2.28076        0.98394
H          2.92366       -1.09520        0.14562
